[JUNCTIONS]
;ID   Elev   Demand   Pattern  
29005   10.54   0.0      ;
29006   10.54   0.0      ;
29026   10.28   0.0      ;
64810   9.57   13.963670378800002      ;
64811   11.18   0.0      ;
70334   9.56   0.0      ;
70335   8.63   0.0      ;
71423   9.56   0.0      ;
71626   9.42   4.26737847019      ;
72291   11.25   8.585258460730001      ;
73712   9.92   1.2845448837755002      ;
73713   9.71   1.0169313663223      ;
73908   10.52   0.160568110472      ;
73909   10.93   0.24085216570729998      ;
73913   10.87   0.347897572689      ;
74383   9.77   0.1873294622169      ;
74384   9.77   1.150738125048      ;
74420   13.72   0.0      ;
74421   14.04   0.0      ;
74875   10.54   0.0      ;
74876   10.54   0.0      ;
76649   10.34   0.5887497383970001      ;
76650   9.46   0.7493178488694999      ;
76787   10.99   0.37465892443449994      ;
76788   10.85   0.4014202761799      ;
77189   10.28   0.0      ;
77563   9.99   1.3648289390103003      ;
77564   10.38   0.5084656831612999      ;
77753   10.59   0.0      ;
77754   12.0   20.766808954400002      ;
79187   13.82   0.3746589244344001      ;
79188   14.56   3.8536346513289006      ;
80240   9.54   1.5253970494822002      ;
80241   10.29   1.0972154215576002      ;
80704   9.65   0.8902482689724999      ;
80740   9.48   0.267613517453      ;
80741   9.44   0.9098859593399      ;
81150   11.13   0.321136220944      ;
81151   11.02   0.5084656831616      ;
81697   10.2   0.3211362209436      ;
81698   10.15   0.053522703490599996      ;
81723   11.99   0.0      ;
81724   13.98   0.0      ;
81806   10.24   0.4817043314152      ;
81807   10.24   0.0      ;
81984   12.51   0.0      ;
81985   12.94   0.0      ;
82274   9.51   0.6422724418879999      ;
82275   9.77   0.0      ;
85188   12.16   2.4888057123099996      ;
85578   10.32   0.0      ;
85579   10.32   0.481704331416      ;
85718   10.03   0.0      ;
85719   10.03   0.0      ;
85902   10.28   0.160568110472      ;
85903   10.28   0.4817043314156      ;
88285   10.01   0.21409081396200003      ;
88286   10.01   0.0      ;
88373   10.29   0.5352270349054      ;
89218   9.35   0.0      ;
89600   12.29   0.0      ;
89601   10.05   0.0      ;
90111   9.17   0.4549429796702      ;
90112   9.63   1.81977191868      ;
90189   9.77   0.0      ;
90256   10.8   0.187329462217      ;
90257   11.62   1.1239767733036      ;
90419   9.62   0.133806758727      ;
90420   8.94   0.3746589244336      ;
90732   11.13   1.097215421558      ;
90799   11.27   0.0      ;
91010   9.06   0.5887497383969      ;
91426   13.98   0.0      ;
91562   9.83   0.0802840552359      ;
91563   10.58   0.6155110901419001      ;
91629   12.38   1.097215421558      ;
93896   9.91   0.1338067587265      ;
93897   10.49   0.7493178488689001      ;
94070   10.01   1.4718743459911003      ;
94071   9.48   0.1873294622169      ;
94936   11.28   1.3113062355187002      ;
94937   10.29   0.9098859593408001      ;
95385   9.69   0.10704540698100001      ;
95435   13.59   0.0      ;
96755   9.13   0.321136220944      ;
96756   8.59   0.160568110472      ;
96972   11.13   0.0802840552359      ;
97227   10.78   0.053522703490599996      ;
99034   11.56   0.0      ;
99391   11.61   0.9634086628313      ;
99392   10.01   0.8831246075954999      ;
100097   9.48   0.0      ;
100134   12.52   1.2577835320292      ;
100135   11.35   1.1239767733022      ;
100219   10.98   0.0      ;
100411   9.12   0.10704540698100001      ;
101496   9.88   0.0      ;
101501   9.6   0.0      ;
101502   9.6   0.0      ;
101814   10.86   0.133806758727      ;
101940   12.32   0.6422724418875      ;
102478   8.67   0.5619883866515999      ;
102797   10.47   0.5084656831609999      ;
103020   13.25   26.895158503986302      ;
103415   10.14   0.7493178488689999      ;
103949   9.61   2.0606240843898003      ;
103974   10.4   0.0      ;
103975   10.4   0.0      ;
104441   9.67   1.4451129942459002      ;
104527   10.97   0.5619883866512      ;
104528   10.73   0.1873294622169      ;
105465   13.59   0.0      ;
105663   10.32   30.855838562315      ;
105754   10.18   1.6056811047196      ;
105810   9.79   1.3915902907549005      ;
106112   11.47   0.508465683161      ;
106113   11.08   1.1774994767928002      ;
106188   10.15   0.8831246075949001      ;
106260   9.35   1.0704540698115      ;
106261   9.56   1.3113062355194005      ;
106341   10.02   0.5084656831614001      ;
106695   10.8   0.8831246075949001      ;
106775   12.63   0.2408521657075      ;
106776   12.76   0.0      ;
106861   9.42   0.0      ;
107102   10.0   0.7493178488684      ;
107231   10.91   0.8563632558485998      ;
107232   12.28   1.4183516425022      ;
107378   10.93   0.160568110472      ;
107379   11.57   0.6422724418874999      ;
107721   10.33   1.8465332704263009      ;
107791   9.88   0.0      ;
107856   10.85   0.1873294622169      ;
107959   9.88   0.0      ;
108008   10.62   2.56908976755      ;
108017   9.97   1.2310221802836      ;
108072   11.09   1.1774994767945002      ;
108393   10.73   0.3211362209436      ;
108573   10.66   0.6957951453779      ;
108579   11.65   0.0      ;
108623   9.92   0.7493178488685999      ;
108756   9.95   0.8028405523587999      ;
108807   10.08   0.7760792006135999      ;
108885   10.66   0.401420276179      ;
108898   10.95   12.1228923406      ;
109253   10.64   1.2845448837741005      ;
109254   10.93   0.9634086628305      ;
109576   13.22   0.0      ;
109976   9.25   0.6422724418869      ;
110263   11.99   0.0      ;
110382   10.51   13.3003918174      ;
110433   9.69   0.10704540698100001      ;
110434   9.21   1.445112994247      ;
110464   9.48   0.37465892443490006      ;
110557   9.24   1.043692718067      ;
110558   9.76   0.1873294622169      ;
111049   13.21   0.0      ;
111198   10.14   0.6155110901426      ;
111361   11.42   0.0      ;
111366   10.47   0.0      ;
111437   10.73   0.8028405523587999      ;
111849   9.6   0.0      ;
111895   9.45   0.0      ;
111955   11.56   0.0      ;
112525   9.88   0.053522703490599996      ;
112526   9.43   0.4281816279258      ;
113059   12.06   0.8296019041042      ;
113307   9.99   0.37465892443390003      ;
113309   10.22   0.321136220944      ;
113528   10.14   0.5352270349059001      ;
113687   10.28   0.0      ;
113782   10.12   0.8296019041042999      ;
113855   10.41   11.105960974261999      ;
113962   11.61   22.907717093979997      ;
114255   9.03   0.588749738396      ;
114287   9.74   1.1239767733016002      ;
114734   9.4   0.9098859593399      ;
[RESERVOIRS]
;ID   Head   Pattern  
92966   150      ;
111724   150      ;

[PIPES]
;ID   Node1   Node2   Length   Diameter   Roughness   Minorloss   Status   
PIPE-29647   29005   29006   1.2203496462889367   6.0   130   0   Open   ;
PIPE-29665   29026   29006   5.5901556306456754   6.0   130   0   Open   ;
PIPE-63966   64810   64811   386.45228061120673   12.0   130   0   Open   ;
PIPE-69346   70334   70335   20.837756553396755   8.0   130   0   Open   ;
PIPE-71309   71423   64810   14.671493496222686   12.0   130   0   Open   ;
PIPE-71761   70335   71626   35.672488372209365   8.0   130   0   Open   ;
PIPE-75634   71626   72291   284.28848871911185   8.0   130   0   Open   ;
PIPE-76288   73712   73713   401.2151542572505   6.0   130   0   Open   ;
PIPE-76388   73908   73909   181.48078896889763   8.0   130   0   Open   ;
PIPE-76391   73909   73913   38.381433843927866   8.0   130   0   Open   ;
PIPE-76634   74383   74384   10.13657705135866   6.0   130   0   Open   ;
PIPE-76653   74420   74421   31.85365922398078   8.0   130   0   Open   ;
PIPE-76889   74875   74876   5.26341299294121   6.0   130   0   Open   ;
PIPE-77836   76649   76650   331.58421182439406   6.0   130   0   Open   ;
PIPE-77915   76787   76788   89.64825824108631   6.0   130   0   Open   ;
PIPE-78137   77189   29026   4.5675305792431775   8.0   130   0   Open   ;
PIPE-78348   77563   77564   333.6682980110292   12.0   130   0   Open   ;
PIPE-78453   77753   77754   273.2235453029176   8.0   130   0   Open   ;
PIPE-79268   79187   79188   273.85028943451766   8.0   130   0   Open   ;
PIPE-79889   80240   80241   147.50208755686694   6.0   130   0   Open   ;
PIPE-80165   80704   71423   107.28114050222185   12.0   130   0   Open   ;
PIPE-80188   80740   80741   239.70107092963454   8.0   130   0   Open   ;
PIPE-80433   81150   81151   46.301048862186576   8.0   130   0   Open   ;
PIPE-80768   81697   81698   7.2198859656303735   6.0   130   0   Open   ;
PIPE-80784   81723   81724   268.4477825206959   8.0   130   0   Open   ;
PIPE-80838   81806   81807   9.075637172877498   12.0   130   0   Open   ;
PIPE-80949   81984   81985   136.96383382593473   8.0   130   0   Open   ;
PIPE-81128   82274   82275   24.75363801275703   12.0   130   0   Open   ;
PIPE-82899   74421   85188   263.0799170138221   8.0   130   0   Open   ;
PIPE-83159   85578   85579   22.04690314058097   12.0   130   0   Open   ;
PIPE-83255   85718   85719   1.8396396757578344   8.0   130   0   Open   ;
PIPE-83380   85902   85903   6.216331637653773   8.0   130   0   Open   ;
PIPE-85195   88285   88286   7.408194651432542   6.0   130   0   Open   ;
PIPE-85271   88373   73712   176.0750003093423   6.0   130   0   Open   ;
PIPE-86051   71423   89218   28.998966040746694   8.0   130   0   Open   ;
PIPE-86424   89600   89601   83.63005095328879   8.0   130   0   Open   ;
PIPE-86952   90111   90112   223.8018280465678   6.0   130   0   Open   ;
PIPE-87034   82275   90189   6.311232054431414   8.0   130   0   Open   ;
PIPE-87099   90256   90257   125.33074634695429   6.0   130   0   Open   ;
PIPE-87285   90419   90420   48.23104910485076   12.0   130   0   Open   ;
PIPE-87659   88373   90732   216.78159148481674   6.0   130   0   Open   ;
PIPE-87735   90799   89600   8.020003880797749   6.0   130   0   Open   ;
PIPE-88001   91010   81150   231.14669529421815   8.0   130   0   Open   ;
PIPE-88502   91426   81724   6.872085983429692   6.0   130   0   Open   ;
PIPE-88623   91562   91563   151.1066526669198   8.0   130   0   Open   ;
PIPE-88672   91629   91426   35.23834924397188   6.0   130   0   Open   ;
PIPE-90404   93896   93897   197.07749407480617   8.0   130   0   Open   ;
PIPE-90570   94070   94071   169.3864652310429   8.0   130   0   Open   ;
PIPE-91553   94936   94937   401.7387889018222   6.0   130   0   Open   ;
PIPE-91959   95385   88285   114.37570037725156   12.0   130   0   Open   ;
PIPE-91995   81724   95435   218.57537360872573   8.0   130   0   Open   ;
PIPE-92866   96755   96756   66.98356901500833   12.0   130   0   Open   ;
PIPE-93015   81150   96972   6.594199008512208   6.0   130   0   Open   ;
PIPE-93197   73913   97227   30.802119724660486   8.0   130   0   Open   ;
PIPE-94521   99034   81984   106.54934150523547   8.0   130   0   Open   ;
PIPE-94805   99391   99392   363.8270399764201   6.0   130   0   Open   ;
PIPE-95390   100097   80740   1.0114898134903576   8.0   130   0   Open   ;
PIPE-95426   100134   100135   387.4574707607188   6.0   130   0   Open   ;
PIPE-95494   100219   85578   59.12778358144916   12.0   130   0   Open   ;
PIPE-95665   100411   70334   64.27891608742496   8.0   130   0   Open   ;
PIPE-96707   101496   77563   41.535974780020396   12.0   130   0   Open   ;
PIPE-96710   101501   101502   5.100976944521513   8.0   130   0   Open   ;
PIPE-97023   101814   73908   25.98400296113164   8.0   130   0   Open   ;
PIPE-97151   96972   101940   116.38561928790432   6.0   130   0   Open   ;
PIPE-97714   79188   102478   373.9558376028368   8.0   130   0   Open   ;
PIPE-98054   97227   102797   133.77001247649588   8.0   130   0   Open   ;
PIPE-98312   103020   79187   67.21046392381288   8.0   130   0   Open   ;
PIPE-98779   77564   103415   20.0269033275674   12.0   130   0   Open   ;
PIPE-99466   103949   94070   397.47693120355365   8.0   130   0   Open   ;
PIPE-99505   103974   103975   13.416902331158422   8.0   130   0   Open   ;
PIPE-99886   90189   91010   40.33150673303457   8.0   130   0   Open   ;
PIPE-100139   104441   76787   179.91119857268814   6.0   130   0   Open   ;
PIPE-100285   104527   104528   110.26568638585199   6.0   130   0   Open   ;
PIPE-100654   102478   70334   22.499840015172964   8.0   130   0   Open   ;
PIPE-101825   95435   105465   25.386043208880825   8.0   130   0   Open   ;
PIPE-102203   85578   105663   23.413842174899827   8.0   130   0   Open   ;
PIPE-102326   90420   105754   440.2387135126513   12.0   130   0   Open   ;
PIPE-102388   104528   105810   50.39939808175959   6.0   130   0   Open   ;
PIPE-102460   81698   82274   299.54271912832974   12.0   130   0   Open   ;
PIPE-102683   85718   96755   132.65322055481036   12.0   130   0   Open   ;
PIPE-102719   106112   106113   46.776247917057454   6.0   130   0   Open   ;
PIPE-102800   74383   106188   362.298818089598   12.0   130   0   Open   ;
PIPE-102897   106260   106261   284.87075202326594   6.0   130   0   Open   ;
PIPE-102995   76788   106341   50.16509431131614   6.0   130   0   Open   ;
PIPE-103061   99392   104441   50.30380653339778   6.0   130   0   Open   ;
PIPE-103449   106695   90256   5.040246128183253   6.0   130   0   Open   ;
PIPE-103549   106775   106776   31.4623348722082   6.0   130   0   Open   ;
PIPE-103672   96756   106861   14.194164302258079   12.0   130   0   Open   ;
PIPE-103951   107102   81806   353.34742565422385   12.0   130   0   Open   ;
PIPE-104030   82275   74383   13.416465122591275   12.0   130   0   Open   ;
PIPE-104126   107231   107232   390.0817802649898   6.0   130   0   Open   ;
PIPE-104331   107378   107379   123.49851606085235   6.0   130   0   Open   ;
PIPE-104745   105810   107721   399.3774106567459   6.0   130   0   Open   ;
PIPE-104840   101496   107791   7.585427015582808   6.0   130   0   Open   ;
PIPE-104920   94937   107856   46.984882216544676   6.0   130   0   Open   ;
PIPE-105068   107959   101496   3.3541162863853287   12.0   130   0   Open   ;
PIPE-105134   85188   108008   272.7207609238771   8.0   130   0   Open   ;
PIPE-105147   108017   76649   66.03093320306793   6.0   130   0   Open   ;
PIPE-105225   108072   100134   104.24173338312876   6.0   130   0   Open   ;
PIPE-105394   85903   103949   157.7015948851412   8.0   130   0   Open   ;
PIPE-105687   108393   106112   81.77763132408742   6.0   130   0   Open   ;
PIPE-105953   108573   80240   373.30780463195816   6.0   130   0   Open   ;
PIPE-105960   108579   81723   28.552983730056834   8.0   130   0   Open   ;
PIPE-106027   108623   107102   270.1141214525296   12.0   130   0   Open   ;
PIPE-106077   73909   107378   4.8556442724553115   6.0   130   0   Open   ;
PIPE-106229   108756   93897   61.260837715559724   8.0   130   0   Open   ;
PIPE-106248   107856   104527   132.5777981728064   6.0   130   0   Open   ;
PIPE-106300   108807   107959   117.642714978085   12.0   130   0   Open   ;
PIPE-106416   106188   108885   13.029419478138086   12.0   130   0   Open   ;
PIPE-106434   108898   103974   282.77377245845616   8.0   130   0   Open   ;
PIPE-106997   109253   109254   63.59052799299721   6.0   130   0   Open   ;
PIPE-107495   109576   74420   78.86473461331316   8.0   130   0   Open   ;
PIPE-107829   81151   106695   217.99067305024   8.0   130   0   Open   ;
PIPE-107983   100135   90799   33.157609155884835   6.0   130   0   Open   ;
PIPE-108147   109976   90419   24.778642496502858   12.0   130   0   Open   ;
PIPE-108638   110263   99034   40.742889221979524   8.0   130   0   Open   ;
PIPE-108860   110382   103975   272.2291446247247   8.0   130   0   Open   ;
PIPE-108971   110433   110434   290.9337422250752   6.0   130   0   Open   ;
PIPE-108981   106695   101814   39.850765891185375   8.0   130   0   Open   ;
PIPE-109023   88286   110464   871.8546390191965   6.0   130   0   Open   ;
PIPE-109193   109254   91629   323.0528707010052   6.0   130   0   Open   ;
PIPE-109206   110557   110558   61.54576545097779   6.0   130   0   Open   ;
PIPE-109335   105465   89600   267.8886478841571   8.0   130   0   Open   ;
PIPE-109915   81985   108579   228.2654185497421   8.0   130   0   Open   ;
PIPE-110177   111049   105465   7.767817124141186   6.0   130   0   Open   ;
PIPE-110529   103415   111198   9.653335305212751   6.0   130   0   Open   ;
PIPE-110857   107232   111049   33.67072788738711   6.0   130   0   Open   ;
PIPE-110891   80741   108756   336.57088045387667   8.0   130   0   Open   ;
PIPE-110925   90732   111361   30.055140316391093   6.0   130   0   Open   ;
PIPE-110934   111366   77189   35.40031983395876   8.0   130   0   Open   ;
PIPE-111101   111437   94936   388.9791656298002   6.0   130   0   Open   ;
PIPE-111241   106261   81697   146.25411085777404   6.0   130   0   Open   ;
PIPE-111288   110464   29026   738.3528389298639   6.0   130   0   Open   ;
PIPE-111427   106776   81985   7.7411891834566875   6.0   130   0   Open   ;
PIPE-111883   107791   74875   230.0973133559863   6.0   130   0   Open   ;
PIPE-111931   111849   101501   3.1346161322552253   8.0   130   0   Open   ;
PIPE-112055   85719   111895   3.0054710801567706   8.0   130   0   Open   ;
PIPE-112084   89218   91562   79.00307714612131   8.0   130   0   Open   ;
PIPE-112172   111955   111437   34.16091421295658   6.0   130   0   Open   ;
PIPE-112889   111361   81723   7.647029999065992   6.0   130   0   Open   ;
PIPE-112917   108885   108573   6.464374536677274   6.0   130   0   Open   ;
PIPE-113118   105754   95385   37.76336069127747   12.0   130   0   Open   ;
PIPE-113209   112525   112526   332.72085179602277   6.0   130   0   Open   ;
PIPE-113581   106113   109253   402.1461939224279   6.0   130   0   Open   ;
PIPE-113753   91563   103020   389.2302096756307   8.0   130   0   Open   ;
PIPE-113913   113059   106775   116.65617459375298   6.0   130   0   Open   ;
PIPE-114204   108885   108807   260.03251054274523   12.0   130   0   Open   ;
PIPE-114553   113307   108393   187.89291539800217   6.0   130   0   Open   ;
PIPE-114555   113309   81698   60.7229069813902   12.0   130   0   Open   ;
PIPE-114741   85579   113309   154.3004834558164   12.0   130   0   Open   ;
PIPE-114790   99034   111955   6.932452147507843   6.0   130   0   Open   ;
PIPE-114967   111724   108623   108.39027605609829   12.0   130   0   Open   ;
PIPE-115302   113528   106260   133.86505880116488   6.0   130   0   Open   ;
PIPE-115320   89601   100411   135.63160516281454   8.0   130   0   Open   ;
PIPE-115404   107959   112525   6.828259382260761   6.0   130   0   Open   ;
PIPE-115435   103975   77753   63.634635016325   8.0   130   0   Open   ;
PIPE-115774   107721   113059   273.3882996026948   6.0   130   0   Open   ;
PIPE-115857   74876   113687   13.726691079853554   6.0   130   0   Open   ;
PIPE-116191   112526   113782   92.90929740705842   6.0   130   0   Open   ;
PIPE-116479   113855   110382   305.1373722207637   8.0   130   0   Open   ;
PIPE-116805   81807   100219   97.1969617953315   12.0   130   0   Open   ;
PIPE-116888   113962   113855   179.9510541374449   8.0   130   0   Open   ;
PIPE-117739   106341   108072   298.6651970649376   6.0   130   0   Open   ;
PIPE-117786   101502   93896   35.769528172305606   8.0   130   0   Open   ;
PIPE-117791   105663   114255   134.63017075481227   8.0   130   0   Open   ;
PIPE-117892   92966   80704   417.31434076837957   12.0   130   0   Open   ;
PIPE-117933   103415   109976   318.30862265755246   12.0   130   0   Open   ;
PIPE-117956   74384   114287   296.2132123354749   6.0   130   0   Open   ;
PIPE-118224   111895   111849   11.600426391263829   8.0   130   0   Open   ;
PIPE-118420   111198   110557   334.8884791789637   6.0   130   0   Open   ;
PIPE-118707   73713   113307   47.25474378752285   6.0   130   0   Open   ;
PIPE-118725   76650   90420   6.917744085086813   6.0   130   0   Open   ;
PIPE-119193   94071   100097   1.2545450527826594   8.0   130   0   Open   ;
PIPE-119283   114255   108898   310.6435263648527   8.0   130   0   Open   ;
PIPE-119477   106861   71423   67.21404125741702   12.0   130   0   Open   ;
PIPE-119528   102797   113687   20.60967548535361   8.0   130   0   Open   ;
PIPE-119583   99391   107231   37.187855859306886   6.0   130   0   Open   ;
PIPE-119650   108008   110263   187.75636345917889   8.0   130   0   Open   ;
PIPE-119656   77754   109576   221.27855428123547   8.0   130   0   Open   ;
PIPE-119668   95385   110433   6.979676185103246   6.0   130   0   Open   ;
PIPE-119832   114287   90111   56.826602024401396   6.0   130   0   Open   ;
PIPE-119871   110434   114734   53.389684011190866   6.0   130   0   Open   ;
PIPE-191185   88285   85718   7.885360634699314   12.0   130   0   Open   ;
PIPE-191522   113687   85902   12.57142661859409   8.0   130   0   Open   ;

[PUMPS]
;ID   Node1   Node2   Parameters   

[CURVES]
;ID   X-Value   Y-Value   
[VALVES]
;ID              	Node1           	Node2           	Diameter    	Type	Setting     	MinorLoss

[TAGS]

[DEMANDS]
;Junction        	Demand      	Pattern         	Category

[STATUS]
;ID              	Status/Setting

[PATTERNS]
;ID              	Multipliers

[CONTROLS]



[RULES]


[ENERGY]
 Global Efficiency  	75
 Global Price       	0.0
 Demand Charge      	0.0

[EMITTERS]
;Junction        	Coefficient

[QUALITY]
;Node            	InitQual

[SOURCES]
;Node            	Type        	Quality     	Pattern

[REACTIONS]
;Type     	Pipe/Tank       	Coefficient


[REACTIONS]
 Order Bulk            	1
 Order Tank            	1
 Order Wall            	1
 Global Bulk           	-.5
 Global Wall           	-1
 Limiting Potential    	0.0
 Roughness Correlation 	0.0

[MIXING]
;Tank            	Model

[TIMES]
 Duration           	0:30
 Hydraulic Timestep 	1:00
 Quality Timestep   	0:05
 Pattern Timestep   	2:00
 Pattern Start      	0:00
 Report Timestep    	1:00
 Report Start       	0:00
 Start ClockTime    	12 am
 Statistic          	NONE

[REPORT]
 Status             	Yes
 Summary            	No
 Page               	0

[OPTIONS]
 Units              	GPM
 Headloss           	H-W
 Specific Gravity   	1.0
 Viscosity          	1.0
 Trials             	40
 Accuracy           	0.001
 CHECKFREQ          	2
 MAXCHECK           	10
 DAMPLIMIT          	0
 Unbalanced         	Continue 10
 Pattern            	1
 Demand Multiplier  	1.0
 Emitter Exponent   	0.5
 Quality            	Chlorine mg/L
 Diffusivity        	1.0
 Tolerance          	0.01

[COORDINATES]
;Node            	X-Coord         	Y-Coord


[VERTICES]
;Link            	X-Coord         	Y-Coord

[LABELS]
;X-Coord           Y-Coord          Label & Anchor Node
             

[BACKDROP]
 DIMENSIONS     	7.00            	6.00            	73.00           	94.00           
 UNITS          	None
 FILE           	
 OFFSET         	0.00            	0.00            

[END]