[JUNCTIONS]
;ID    Elev   Demand     Pattern     
0   446.356853485   1.19704723358           ;
1   777.329437256   2.76274299622           ;
2   741.832641602   1.81736850739           ;
3   851.238464355   4.65131807327           ;
4   870.450592041   3.63451600075           ;
5   431.143129349   4.2259850502           ;
6   512.981697083   3.83418917656           ;
7   521.556381226   4.98162889481           ;
8   523.580177307   0.120489194989           ;
9   406.19324255   0.898385107517           ;
10   815.84072876   0.352005183697           ;
11   515.092163086   3.54034876823           ;
12   664.214324951   1.50177955627           ;
13   440.93270874   4.56077671051           ;
14   697.755096436   3.70133495331           ;
15   733.578308105   4.50658369064           ;
16   615.224899292   2.85119891167           ;
17   409.786104202   4.75070953369           ;
18   418.26049614   4.04195022583           ;
19   706.087371826   4.10602664948           ;
20   899.2371521   1.7910015583           ;
21   536.210861206   2.96155714989           ;
22   889.337341309   2.92990207672           ;
23   686.610473633   0.621897637844           ;
24   623.361953735   0.447398543358           ;
25   842.735290527   0.522246658802           ;
26   640.018554688   4.91855144501           ;
27   509.413551331   4.13704013824           ;
28   523.38470459   2.26934337616           ;
29   485.389038086   1.33649814129           ;
30   652.290924072   2.53680372238           ;
31   506.110534668   3.99901151657           ;
32   538.741210938   3.23476243019           ;
33   565.207992554   1.50802361965           ;
34   435.287769318   0.81585496664           ;
35   607.470458984   4.56079244614           ;
36   723.922546387   1.66728150845           ;
37   599.973068237   4.4737443924           ;
38   422.483200073   3.75159358978           ;
39   703.460418701   2.59251832962           ;
40   645.793411255   0.498926192522           ;
41   445.283462524   0.792426884174           ;
42   731.871887207   2.70951676369           ;
43   785.187652588   3.48752140999           ;
44   877.303009033   0.318758159876           ;
45   636.838760376   0.492109060287           ;
46   487.717575073   2.69303607941           ;
47   586.140686035   4.66644763947           ;
48   799.016967773   2.78223013878           ;
49   494.025802612   2.91754460335           ;
50   417.23434639   1.57686853409           ;
51   643.085769653   0.427954941988           ;
52   663.875244141   4.512819767           ;
53   595.89163208   3.51036214828           ;
54   765.792907715   3.81936001778           ;
55   598.706512451   1.60647928715           ;
56   409.801776886   2.3846745491           ;
57   822.520446777   3.01313519478           ;
58   576.277252197   1.91977787018           ;
59   470.653038025   4.65658855438           ;
60   728.257080078   0.166941598058           ;
61   478.750244141   0.554081380367           ;
62   644.612411499   2.00913167           ;
63   647.741760254   2.96067261696           ;
64   402.741997004   0.847457885742           ;
65   722.475463867   3.45581293106           ;
66   584.917236328   4.04174375534           ;
67   859.019195557   2.35849666595           ;
68   825.61907959   3.80349874496           ;
69   440.300590515   3.32078814507           ;
70   648.786712646   3.58255982399           ;
71   608.197219849   1.7102637291           ;
72   840.233612061   0.0630412921309           ;
73   853.496582031   4.17411184311           ;
74   830.350860596   4.07081508636           ;
75   718.827270508   0.299382954836           ;
76   572.936325073   0.410693347454           ;
77   652.365722656   0.109474673867           ;
78   894.086791992   1.16885173321           ;
79   889.184020996   2.16330313683           ;
80   763.695678711   1.33174133301           ;
81   657.729064941   1.52701127529           ;
82   847.738861084   1.4731760025           ;
83   867.013397217   0.947543680668           ;
84   436.668754578   2.9173617363           ;
85   610.041519165   1.67964458466           ;
86   878.584289551   0.664673686028           ;
87   517.039581299   0.842593967915           ;
88   547.660598755   2.32034420967           ;
89   702.567443848   2.51077437401           ;
90   758.66293335   0.486278951168           ;
91   689.001525879   2.48557138443           ;
92   899.883300781   0.390249192715           ;
93   791.802825928   0.304708123207           ;
94   522.945259094   3.40994000435           ;
95   486.273628235   0.00961298309267           ;
96   556.54145813   4.92553567886           ;
97   747.99307251   2.1946413517           ;
98   433.814651489   3.22878098488           ;
99   511.986236572   1.52723240852           ;
100   719.557922363   3.10325598717           ;
101   542.462936401   3.74546861649           ;
102   408.967349052   2.14239835739           ;
103   629.190948486   0.123657926917           ;
104   731.880981445   4.23914146423           ;
105   625.487991333   2.76971793175           ;
106   464.806396484   2.01147413254           ;
107   584.655960083   0.127125114202           ;
108   559.17640686   2.7790749073           ;
109   691.445404053   3.22998285294           ;
110   532.300842285   0.804300963879           ;
111   688.640014648   1.72680580616           ;
112   642.662963867   4.36823940277           ;
113   600.286178589   2.09981679916           ;
114   561.986419678   0.0590975023806           ;
115   725.168365479   1.05032539368           ;
116   681.864135742   2.90727543831           ;
117   658.200042725   0.684553444386           ;
118   428.960426331   2.3789741993           ;
119   742.093566895   0.667850196362           ;
120   855.863861084   2.04512453079           ;
121   640.841186523   3.18052101135           ;
122   402.089675903   1.21184229851           ;
123   643.492919922   3.85589718819           ;
124   506.262413025   4.52412796021           ;
125   601.810684204   3.32270240784           ;
126   865.858825684   1.89530062675           ;
127   831.714752197   3.30329227448           ;
128   743.391662598   3.84119796753           ;
129   801.736938477   4.93035888672           ;
130   854.100219727   0.627689063549           ;
131   857.040893555   4.86466884613           ;
132   448.765228271   0.972482562065           ;
133   851.489746094   1.88768947124           ;
134   539.733352661   4.98667287827           ;
135   501.212921143   0.856946349144           ;
136   669.669403076   3.33839821815           ;
137   746.146881104   1.9125970602           ;
138   402.000324249   1.19452679157           ;
139   541.166213989   0.807616055012           ;
140   760.298797607   0.4213090837           ;
141   494.178863525   3.64266395569           ;
142   625.121414185   1.15881729126           ;
143   524.148750305   0.681983947754           ;
144   610.502914429   4.2254242897           ;
145   570.596832275   2.21041893959           ;
146   451.302894592   2.47802782059           ;
147   721.372497559   3.07984375954           ;
148   693.387908936   4.70983314514           ;
149   716.669342041   2.61560940742           ;
150   454.688491821   1.49549615383           ;
151   880.440887451   2.70491170883           ;
152   545.264541626   4.6124792099           ;
153   593.694290161   4.19984531403           ;
154   579.947433472   3.76575398445           ;
155   502.811477661   4.52665472031           ;
156   848.754730225   2.21086072922           ;
157   693.724029541   1.19692730904           ;
158   575.64390564   0.474738329649           ;
159   792.6796875   2.67837190628           ;
160   439.53036499   3.86900162697           ;
161   530.690765381   0.196979105473           ;
162   462.764717102   3.8667011261           ;
163   664.444793701   0.235107153654           ;
164   544.58706665   0.748745858669           ;
165   817.245056152   1.38066673279           ;
166   886.565551758   2.07579851151           ;
167   694.520751953   0.107396632433           ;
168   401.530388355   2.2123734951           ;
169   736.12789917   3.01708817482           ;
170   720.164276123   0.0147929554805           ;
171   762.520263672   3.78475046158           ;
172   430.152259827   2.69039535522           ;
173   647.423187256   4.41637182236           ;
174   496.139373779   3.14552760124           ;
175   588.094726562   3.08187651634           ;
176   610.192901611   2.12379693985           ;
177   865.811950684   4.01555538177           ;
178   844.128936768   4.75279998779           ;
179   430.809371948   3.13122677803           ;
180   552.939056396   4.46986150742           ;
181   896.676483154   1.4203646183           ;
182   606.891784668   2.3030102253           ;
183   569.592666626   3.44270968437           ;
184   562.257644653   0.644293963909           ;
185   764.867980957   3.36379623413           ;
186   432.428817749   0.311453253031           ;
187   859.511566162   0.109594762325           ;
188   595.921020508   3.44903588295           ;
189   694.838104248   3.44582486153           ;
190   797.981262207   3.71630334854           ;
191   891.336608887   3.94884443283           ;
192   722.748962402   4.4241104126           ;
193   502.089813232   3.23573613167           ;
194   701.979614258   3.71894574165           ;
195   832.147674561   1.06250369549           ;
196   650.050262451   0.949915647507           ;
197   423.25689888   3.78722763062           ;
198   593.4559021   4.13513469696           ;
199   821.21005249   2.77839994431           ;
200   556.602294922   0.148730635643           ;
201   871.569244385   1.64675855637           ;
202   607.297134399   0.432650506496           ;
203   555.700332642   3.55716252327           ;
204   423.198863983   4.03338003159           ;
205   801.995178223   3.3341896534           ;
206   672.568725586   0.625757813454           ;
207   611.128601074   4.38443470001           ;
208   819.635406494   3.12209248543           ;
209   701.061828613   4.46351623535           ;
210   732.082244873   3.06560969353           ;
211   770.20803833   0.866856873035           ;
212   826.300201416   3.27980184555           ;
213   763.017578125   2.36853480339           ;
214   696.75112915   4.96418714523           ;
215   710.039337158   3.31163287163           ;
216   761.596893311   3.59121346474           ;
217   652.38923645   4.06155633926           ;
218   657.774658203   4.18840026855           ;
219   844.895751953   3.63517904282           ;
220   545.727676392   2.45159125328           ;
221   789.336761475   0.833066523075           ;
222   534.905197144   3.51724624634           ;
223   835.553741455   3.51837015152           ;
224   724.534057617   4.43921041489           ;
225   880.704345703   1.98412203789           ;
226   613.8934021   4.06583547592           ;
227   849.507537842   3.73511576653           ;
228   509.316680908   2.85568761826           ;
229   454.241714478   1.40547454357           ;
230   581.144729614   4.99716472626           ;
231   634.840713501   4.68080043793           ;
232   421.330991745   0.100021548569           ;
233   506.212844849   1.19291865826           ;
234   838.49395752   2.67919921875           ;
235   829.990509033   3.50723910332           ;
236   516.85055542   4.07410860062           ;
237   754.848693848   4.42070293427           ;
238   775.617584229   0.0513604916632           ;
239   721.585388184   3.86192560196           ;
240   638.589187622   4.686855793           ;
241   598.334594727   4.09738540649           ;
242   875.718475342   4.01038265228           ;
243   650.128372192   4.07943248749           ;
244   702.595794678   2.27574205399           ;
245   739.587371826   4.45261716843           ;
246   414.30848217   4.82656097412           ;
247   401.504130125   2.79916214943           ;
248   451.792297363   4.73195552826           ;
249   897.875244141   2.89728856087           ;
250   872.962402344   0.796113312244           ;
251   427.632772446   4.24010801315           ;
252   749.71395874   1.42989599705           ;
253   626.334823608   0.096508204937           ;
254   601.354202271   1.60049140453           ;
255   845.990936279   2.69760966301           ;
256   772.789703369   4.76425123215           ;
257   677.197509766   3.58666300774           ;
258   504.332069397   0.0920863002539           ;
259   669.437866211   4.42197275162           ;
260   409.837198257   3.33811545372           ;
261   770.526702881   4.42567539215           ;
262   633.162536621   2.62960481644           ;
263   476.997825623   1.02569663525           ;
264   788.404510498   4.14989709854           ;
265   632.651565552   1.7494071722           ;
266   628.619247437   4.03826570511           ;
267   513.617492676   0.691834807396           ;
268   666.748809814   2.4724316597           ;
269   815.802368164   3.90718579292           ;
270   707.08303833   1.44765424728           ;
271   472.475761414   1.00095152855           ;
272   699.336547852   4.49543952942           ;
273   885.482757568   0.0935386046767           ;
274   610.329803467   0.13332273066           ;
275   475.526039124   3.66280889511           ;
276   482.91443634   0.430791676044           ;
277   431.589830399   4.30289745331           ;
278   779.69833374   0.903021395206           ;
279   608.083099365   2.52818489075           ;
280   520.279762268   0.420580774546           ;
281   770.087768555   0.649740636349           ;
282   419.098194122   4.83348083496           ;
283   531.614074707   0.377015680075           ;
284   550.259262085   4.076359272           ;
285   536.945556641   1.43959391117           ;
286   425.371017456   4.10713148117           ;
287   755.448455811   0.224652156234           ;
288   472.897155762   1.82544541359           ;
289   426.103351593   2.19048380852           ;
290   446.41652298   1.22548282146           ;
291   569.119857788   3.97641706467           ;
292   564.461868286   1.10853517056           ;
293   515.017402649   0.975973844528           ;
294   719.243591309   0.273580878973           ;
295   707.403839111   0.365507781506           ;
296   708.941162109   3.74491024017           ;
297   470.796981812   3.84961748123           ;
298   452.403465271   2.45101737976           ;
299   824.830657959   1.29371464252           ;
300   746.208526611   2.26766633987           ;
301   666.749542236   2.59632277489           ;
302   540.121002197   0.139436081052           ;
303   750.241851807   0.15302246809           ;
304   584.867706299   0.717226266861           ;
305   842.183349609   2.7575442791           ;
306   504.33706665   0.931425213814           ;
307   846.446777344   4.31475162506           ;
308   703.176971436   4.96049165726           ;
309   498.320487976   4.72554159164           ;
310   617.818588257   3.77264881134           ;
311   590.960342407   4.7059969902           ;
312   769.286743164   1.02844119072           ;
313   401.250921965   0.242457523942           ;
314   898.342681885   1.45396125317           ;
315   572.815505981   0.103300005198           ;
316   516.325073242   0.755762279034           ;
317   609.756088257   3.70724892616           ;
318   673.270751953   3.61582684517           ;
319   520.150978088   3.77566099167           ;
320   653.24772644   3.34646511078           ;
321   804.012908936   2.45100450516           ;
322   803.206420898   1.90462827682           ;
323   508.703300476   4.76452112198           ;
324   630.872558594   2.75400495529           ;
325   555.846405029   3.10730910301           ;
326   854.27255249   4.58830785751           ;
327   468.627609253   4.24286603928           ;
328   884.932037354   2.53013014793           ;
329   789.839416504   0.315083414316           ;
330   460.698600769   1.61386668682           ;
331   825.733978271   3.10946917534           ;
332   484.573066711   4.19549894333           ;
333   775.354370117   0.81229954958           ;
334   631.841873169   0.663872361183           ;
335   670.293609619   3.24751281738           ;
336   495.027938843   1.34633302689           ;
337   681.888031006   1.92212474346           ;
338   415.194018364   3.65878605843           ;
339   722.077941895   1.64409422874           ;
340   629.393005371   4.085521698           ;
341   436.974521637   4.30835437775           ;
342   451.710067749   0.91125279665           ;
343   442.560390472   3.1247446537           ;
344   658.190856934   4.14005851746           ;
345   596.480316162   2.44666576385           ;
346   511.065132141   1.71738314629           ;
347   805.801269531   3.02533769608           ;
348   585.086151123   2.43131136894           ;
349   705.134735107   3.99436020851           ;
350   721.098327637   1.99966859818           ;
351   742.94720459   4.13776016235           ;
352   733.345306396   0.347501635551           ;
353   446.003051758   1.73370242119           ;
354   733.578460693   4.53366279602           ;
355   627.299606323   2.24561357498           ;
356   602.731735229   3.12535142899           ;
357   678.138946533   1.81632244587           ;
358   593.279403687   4.47159099579           ;
359   802.979156494   3.70818972588           ;
360   754.275604248   3.10165500641           ;
361   851.287567139   2.90715932846           ;
362   462.877361298   2.79876637459           ;
363   786.934387207   2.06555008888           ;
364   470.149475098   0.0237183179706           ;
365   763.37701416   2.77773547173           ;
366   440.440731049   1.87448132038           ;
367   840.741729736   0.467865377665           ;
368   741.349975586   0.694272756577           ;
369   764.236602783   2.24687719345           ;
370   726.632232666   2.08636975288           ;
371   461.462947845   0.0780830904841           ;
372   634.250228882   0.437468498945           ;
373   653.315917969   4.80520915985           ;
374   514.650527954   4.31533670425           ;
375   686.321594238   2.07226800919           ;
376   761.091949463   3.72801327705           ;
377   571.798690796   4.20771837234           ;
378   812.12689209   1.16900348663           ;
379   644.139755249   2.57085776329           ;
380   740.474151611   3.49196720123           ;
381   849.63861084   0.766345381737           ;
382   896.678955078   1.83766663074           ;
383   466.378166199   1.17878985405           ;
384   592.096084595   0.59180855751           ;
385   552.639144897   4.06323051453           ;
386   471.538330078   3.44815540314           ;
387   714.949981689   3.64222502708           ;
388   887.607421875   2.18184947968           ;
389   434.41437149   4.02341651917           ;
390   556.268997192   4.1309838295           ;
391   844.710144043   2.43880176544           ;
392   794.147064209   4.3010020256           ;
393   594.851303101   3.65870738029           ;
394   589.479705811   0.854338169098           ;
395   786.221710205   2.28692102432           ;
396   528.054656982   2.14821100235           ;
397   898.299835205   4.25659751892           ;
398   463.204502106   2.78084993362           ;
399   674.242980957   2.02122092247           ;

[RESERVOIRS]
;ID    Head   Pattern     
400   812.475524902           ;
401   776.031066895           ;
402   754.393920898           ;
403   598.812255859           ;
404   737.642272949           ;

[PIPES]
;ID    Node1   Node2   Length   Diameter   Roughness   MinorLoss   Status   
P-V-1   0   1   279.324569702   3.16041502357   155   0   Open           ;
P-V-2   1   2   604.776062012   8.42910528183   155   0   Open           ;
P-V-3   2   3   748.833862305   12.0243330002   155   0   Open           ;
P-V-4   3   4   398.507888794   9.44452762604   155   0   Open           ;
P-V-5   4   5   258.814975739   9.06616401672   155   0   Open           ;
P-V-6   5   6   301.192100525   9.71171808243   155   0   Open           ;
P-V-7   6   7   392.485717773   13.1510810852   155   0   Open           ;
P-V-8   7   8   461.820373535   3.30555394292   155   0   Open           ;
P-V-9   8   9   772.27947998   9.04137229919   155   0   Open           ;
P-V-10   9   10   467.489471436   12.9138936996   155   0   Open           ;
P-V-11   10   11   340.945343018   4.36890864372   155   0   Open           ;
P-V-12   11   12   362.482589722   7.89981412888   155   0   Open           ;
P-V-13   12   13   559.043029785   7.72737646103   155   0   Open           ;
P-V-14   13   14   250.850006104   7.72152757645   155   0   Open           ;
P-V-15   14   15   735.991882324   3.30227467418   155   0   Open           ;
P-V-16   15   16   416.52255249   4.89435052872   155   0   Open           ;
P-V-17   16   17   317.401802063   10.4434580803   155   0   Open           ;
P-V-18   17   18   309.99911499   6.10441827774   155   0   Open           ;
P-V-19   18   19   797.986999512   10.3515543938   155   0   Open           ;
P-V-21   20   21   478.850372314   3.76663774252   155   0   Open           ;
P-V-22   21   22   644.041290283   7.04716157913   155   0   Open           ;
P-V-23   22   23   432.234603882   6.34092235565   155   0   Open           ;
P-V-24   23   24   343.976089478   3.12363861501   155   0   Open           ;
P-V-25   24   25   299.705474854   13.9993867874   155   0   Open           ;
P-V-26   25   26   535.063659668   11.2930440903   155   0   Open           ;
P-V-27   26   27   260.045909882   14.8327512741   155   0   Open           ;
P-V-28   27   28   652.976104736   10.3877511024   155   0   Open           ;
P-V-29   28   29   297.123931885   10.240208149   155   0   Open           ;
P-V-30   29   30   509.013153076   14.6835384369   155   0   Open           ;
P-V-31   30   31   661.636444092   5.47657942772   155   0   Open           ;
P-V-32   31   32   593.504272461   11.5251846313   155   0   Open           ;
P-V-33   32   33   339.049163818   14.9858894348   155   0   Open           ;
P-V-34   33   34   342.717163086   11.9490661621   155   0   Open           ;
P-V-35   34   35   748.087768555   13.2328062057   155   0   Open           ;
P-V-36   35   36   739.436218262   9.10103178024   155   0   Open           ;
P-V-37   36   37   202.3344028   7.68615102768   155   0   Open           ;
P-V-38   37   38   407.130630493   3.8946455121   155   0   Open           ;
P-V-39   38   39   215.414361954   12.3835916519   155   0   Open           ;
P-V-41   40   41   501.516021729   14.595580101   155   0   Open           ;
P-V-42   41   42   545.441864014   7.83737945557   155   0   Open           ;
P-V-43   42   43   292.159217834   9.39894723892   155   0   Open           ;
P-V-44   43   44   355.599609375   10.2536015511   155   0   Open           ;
P-V-45   44   45   363.793899536   4.68512606621   155   0   Open           ;
P-V-46   45   46   295.666915894   12.477853775   155   0   Open           ;
P-V-47   46   47   514.169952393   8.09582042694   155   0   Open           ;
P-V-48   47   48   272.797950745   5.303388834   155   0   Open           ;
P-V-49   48   49   252.798160553   14.5739421844   155   0   Open           ;
P-V-50   49   50   362.140777588   13.0047998428   155   0   Open           ;
P-V-51   50   51   534.101226807   11.7948923111   155   0   Open           ;
P-V-52   51   52   787.764892578   6.29269862175   155   0   Open           ;
P-V-53   52   53   619.247344971   12.8139381409   155   0   Open           ;
P-V-54   53   54   342.72328186   14.0084657669   155   0   Open           ;
P-V-55   54   55   364.458831787   12.1948671341   155   0   Open           ;
P-V-56   55   56   307.49193573   3.34081578255   155   0   Open           ;
P-V-57   56   57   404.557067871   14.8182830811   155   0   Open           ;
P-V-58   57   58   494.437530518   11.2336912155   155   0   Open           ;
P-V-59   58   59   782.907653809   5.58625435829   155   0   Open           ;
P-V-61   60   61   358.840042114   7.49289417267   155   0   Open           ;
P-V-62   61   62   603.785675049   11.5181779861   155   0   Open           ;
P-V-63   62   63   451.662887573   8.96327590942   155   0   Open           ;
P-V-64   63   64   239.095954895   4.71427822113   155   0   Open           ;
P-V-65   64   65   793.744445801   12.2745008469   155   0   Open           ;
P-V-66   65   66   626.888885498   13.4357481003   155   0   Open           ;
P-V-67   66   67   281.043807983   5.06672143936   155   0   Open           ;
P-V-68   67   68   569.338897705   12.5768823624   155   0   Open           ;
P-V-69   68   69   333.801330566   14.9807052612   155   0   Open           ;
P-V-70   69   70   786.553771973   7.1868519783   155   0   Open           ;
P-V-71   70   71   221.269784927   12.6258325577   155   0   Open           ;
P-V-72   71   72   668.878845215   3.93548083305   155   0   Open           ;
P-V-73   72   73   331.313720703   6.79613757133   155   0   Open           ;
P-V-74   73   74   684.204833984   7.621945858   155   0   Open           ;
P-V-75   74   75   452.281829834   13.019068718   155   0   Open           ;
P-V-76   75   76   525.097595215   9.30803394318   155   0   Open           ;
P-V-77   76   77   756.606750488   8.8099694252   155   0   Open           ;
P-V-78   77   78   408.062316895   5.06687402725   155   0   Open           ;
P-V-79   78   79   697.656890869   5.39606881142   155   0   Open           ;
P-V-81   80   81   736.421936035   3.86276561022   155   0   Open           ;
P-V-82   81   82   425.071487427   10.5315589905   155   0   Open           ;
P-V-83   82   83   545.979370117   8.51287078857   155   0   Open           ;
P-V-84   83   84   341.030380249   8.95237445831   155   0   Open           ;
P-V-85   84   85   677.975402832   13.6575345993   155   0   Open           ;
P-V-86   85   86   659.633544922   4.23185312748   155   0   Open           ;
P-V-87   86   87   387.865386963   8.0688662529   155   0   Open           ;
P-V-88   87   88   421.939163208   13.6356706619   155   0   Open           ;
P-V-89   88   89   286.250320435   3.18175891042   155   0   Open           ;
P-V-90   89   90   541.105133057   14.080529213   155   0   Open           ;
P-V-91   90   91   323.102539062   6.68792796135   155   0   Open           ;
P-V-92   91   92   350.291931152   14.1320810318   155   0   Open           ;
P-V-93   92   93   444.634384155   10.4063248634   155   0   Open           ;
P-V-94   93   94   305.034576416   5.32307624817   155   0   Open           ;
P-V-95   94   95   597.238769531   6.83596396446   155   0   Open           ;
P-V-96   95   96   552.278320312   13.8411540985   155   0   Open           ;
P-V-97   96   97   763.780456543   8.17341184616   155   0   Open           ;
P-V-98   97   98   676.769042969   4.14413571358   155   0   Open           ;
P-V-99   98   99   474.497436523   4.56986618042   155   0   Open           ;
P-V-101   100   101   637.003051758   5.21121191978   155   0   Open           ;
P-V-102   101   102   791.972045898   4.49909090996   155   0   Open           ;
P-V-103   102   103   561.04675293   9.26117753983   155   0   Open           ;
P-V-104   103   104   380.476043701   8.21602678299   155   0   Open           ;
P-V-105   104   105   488.165466309   14.9431743622   155   0   Open           ;
P-V-106   105   106   446.814727783   11.3016023636   155   0   Open           ;
P-V-107   106   107   251.743579865   8.08778142929   155   0   Open           ;
P-V-108   107   108   717.173034668   13.5502567291   155   0   Open           ;
P-V-109   108   109   508.185394287   12.4416475296   155   0   Open           ;
P-V-110   109   110   689.120330811   3.91391056776   155   0   Open           ;
P-V-111   110   111   204.738149166   11.6813268661   155   0   Open           ;
P-V-112   111   112   753.522155762   3.94101428986   155   0   Open           ;
P-V-113   112   113   781.383911133   9.38181686401   155   0   Open           ;
P-V-114   113   114   359.929397583   13.6662025452   155   0   Open           ;
P-V-115   114   115   744.012634277   11.4227771759   155   0   Open           ;
P-V-116   115   116   681.408813477   3.76321673393   155   0   Open           ;
P-V-117   116   117   769.179504395   11.0066375732   155   0   Open           ;
P-V-118   117   118   778.111633301   13.4471321106   155   0   Open           ;
P-V-119   118   119   248.104030609   8.6895236969   155   0   Open           ;
P-V-121   120   121   591.422485352   7.75498342514   155   0   Open           ;
P-V-122   121   122   650.448394775   12.7249536514   155   0   Open           ;
P-V-123   122   123   565.221130371   8.43605184555   155   0   Open           ;
P-V-124   123   124   586.195556641   14.7822618484   155   0   Open           ;
P-V-125   124   125   224.030702591   4.68105137348   155   0   Open           ;
P-V-126   125   126   471.530181885   3.15792700648   155   0   Open           ;
P-V-127   126   127   313.961524963   6.02705669403   155   0   Open           ;
P-V-128   127   128   587.009490967   12.3694658279   155   0   Open           ;
P-V-129   128   129   631.033233643   14.5119762421   155   0   Open           ;
P-V-130   129   130   489.593261719   14.883936882   155   0   Open           ;
P-V-131   130   131   466.372833252   9.56870603561   155   0   Open           ;
P-V-132   131   132   212.484307289   11.4751224518   155   0   Open           ;
P-V-133   132   133   269.606468201   12.5190057755   155   0   Open           ;
P-V-134   133   134   296.477386475   8.90838289261   155   0   Open           ;
P-V-135   134   135   309.533241272   5.50496792793   155   0   Open           ;
P-V-136   135   136   449.846176147   10.2938466072   155   0   Open           ;
P-V-137   136   137   584.406188965   13.2976713181   155   0   Open           ;
P-V-138   137   138   648.903839111   9.5360455513   155   0   Open           ;
P-V-139   138   139   366.050643921   7.26288461685   155   0   Open           ;
P-V-141   140   141   515.425933838   10.2867121696   155   0   Open           ;