[JUNCTIONS]
;ID    Elev   Demand     Pattern     
0   861.641021729   3.01063513756           ;
1   874.166534424   3.17381310463           ;
2   627.876037598   4.12776899338           ;
3   441.447444916   1.07248437405           ;
4   424.54621315   0.482213526964           ;
5   856.279815674   1.95303320885           ;
6   862.802124023   3.15825676918           ;
7   482.003379822   2.30877709389           ;
8   761.772277832   3.06876349449           ;
9   571.066635132   1.17128455639           ;
10   478.062835693   0.0220792945474           ;
11   508.671134949   4.35947418213           ;
12   868.147827148   1.60639047623           ;
13   760.43548584   3.3978073597           ;
14   594.946350098   4.63545751572           ;
15   713.551239014   3.5590672493           ;
16   624.152587891   3.32537412643           ;
17   856.35168457   4.02775144577           ;
18   841.601348877   4.93947219849           ;
19   670.981872559   3.92183756828           ;
20   832.436920166   4.67877483368           ;
21   516.746871948   1.64861941338           ;
22   734.780822754   1.61478245258           ;
23   865.094696045   3.46958994865           ;
24   739.790283203   3.55347800255           ;
25   730.51373291   4.44629621506           ;
26   790.360443115   2.88683342934           ;
27   801.061187744   1.35761010647           ;
28   635.147323608   1.21438968182           ;
29   424.849529266   1.46060013771           ;
30   730.729278564   0.672055244446           ;
31   423.282735825   3.129570961           ;
32   770.32434082   0.414074957371           ;
33   835.804656982   0.688569366932           ;
34   678.616912842   2.14836812019           ;
35   662.087615967   4.06809091568           ;
36   640.589065552   0.807814598083           ;
37   593.97996521   2.21497273445           ;
38   604.893310547   1.41965997219           ;
39   422.672115326   0.502704143524           ;
40   794.883331299   3.04834413528           ;
41   752.41394043   0.215073138475           ;
42   873.421630859   2.97773218155           ;
43   574.317062378   2.47021174431           ;
44   584.913452148   3.40577292442           ;
45   482.952758789   1.87001526356           ;
46   834.647064209   1.13778650761           ;
47   677.952484131   0.475274652243           ;
48   694.097442627   3.95662164688           ;
49   793.724822998   3.33144688606           ;
50   562.794174194   0.819016158581           ;
51   420.526456833   4.8816485405           ;
52   486.579826355   1.47186481953           ;
53   663.366119385   3.94360280037           ;
54   412.914263725   0.500408947468           ;
55   437.305091858   4.86747598648           ;
56   667.130615234   1.64732897282           ;
57   565.93737793   4.09628009796           ;
58   518.208030701   2.22400355339           ;
59   782.958587646   3.85632562637           ;
60   726.468383789   4.5429110527           ;
61   670.375030518   1.93360221386           ;
62   705.347229004   4.70733499527           ;
63   518.432678223   4.98169612885           ;
64   636.54598999   1.28482985497           ;
65   813.413787842   2.45842695236           ;
66   778.14553833   4.92095947266           ;
67   557.082595825   0.873581528664           ;
68   628.53616333   0.0743796750903           ;
69   409.919199944   2.11992120743           ;
70   851.560852051   3.83976840973           ;
71   898.818511963   1.43248975277           ;
72   485.434677124   4.00739622116           ;
73   631.289093018   2.75927329063           ;
74   410.815821648   2.8152525425           ;
75   494.950370789   3.30967569351           ;
76   472.134765625   3.6907582283           ;
77   457.444065094   4.62457513809           ;
78   424.054143906   2.7803041935           ;
79   757.477722168   1.28694581985           ;
80   869.872497559   1.47530698776           ;
81   448.657402039   2.85044646263           ;
82   645.107437134   0.208093672991           ;
83   643.036346436   2.12077260017           ;
84   782.659454346   3.57765555382           ;
85   865.613830566   0.717719614506           ;
86   671.398925781   4.01714849472           ;
87   521.631607056   2.62595033646           ;
88   834.40145874   4.85705375671           ;
89   650.831863403   2.31098437309           ;
90   471.463493347   0.869184374809           ;
91   738.181762695   3.21010041237           ;
92   615.828964233   4.37568235397           ;
93   609.712188721   1.32878267765           ;
94   685.217956543   1.58622097969           ;
95   861.663604736   1.80724573135           ;
96   838.038269043   1.09363663197           ;
97   475.100715637   2.17847394943           ;
98   761.05581665   2.65103316307           ;
99   491.393852234   0.565166890621           ;

[RESERVOIRS]
;ID    Head   Pattern     
100   905.322357178           ;
101   752.874267578           ;
102   558.07837677           ;
103   623.291221619           ;
104   655.622436523           ;

[PIPES]
;ID    Node1   Node2   Length   Diameter   Roughness   MinorLoss   Status   
P-V-1   0   1   651.21005249   4.74800133705   155   0   Open           ;
P-V-2   1   2   332.863235474   11.6459569931   155   0   Open           ;
P-V-3   2   3   430.845352173   7.35658884048   155   0   Open           ;
P-V-4   3   4   659.601287842   5.37774324417   155   0   Open           ;
P-V-5   4   5   336.714599609   10.2493057251   155   0   Open           ;
P-V-6   5   6   354.111175537   13.9337244034   155   0   Open           ;
P-V-7   6   7   555.600921631   14.697136879   155   0   Open           ;
P-V-8   7   8   689.270385742   6.34994530678   155   0   Open           ;
P-V-9   8   9   726.680725098   5.46273207664   155   0   Open           ;
P-V-11   10   11   356.920349121   10.2083106041   155   0   Open           ;
P-V-12   11   12   703.859680176   14.3893003464   155   0   Open           ;
P-V-13   12   13   598.58807373   4.40367746353   155   0   Open           ;
P-V-14   13   14   780.372680664   5.47289514542   155   0   Open           ;
P-V-15   14   15   497.633636475   5.57267332077   155   0   Open           ;
P-V-16   15   16   346.232727051   5.6705930233   155   0   Open           ;
P-V-17   16   17   432.827819824   13.7456970215   155   0   Open           ;
P-V-18   17   18   346.887527466   9.77361059189   155   0   Open           ;
P-V-19   18   19   203.616585732   6.67917203903   155   0   Open           ;
P-V-21   20   21   792.343383789   9.31083440781   155   0   Open           ;
P-V-22   21   22   709.941253662   6.65257239342   155   0   Open           ;
P-V-23   22   23   639.209106445   14.7492427826   155   0   Open           ;
P-V-24   23   24   676.576080322   11.288359642   155   0   Open           ;
P-V-25   24   25   523.205291748   9.22895097733   155   0   Open           ;
P-V-26   25   26   299.231719971   10.7507419586   155   0   Open           ;
P-V-27   26   27   536.166046143   9.85619544983   155   0   Open           ;
P-V-28   27   28   603.848937988   8.78499126434   155   0   Open           ;
P-V-29   28   29   417.401855469   12.4622249603   155   0   Open           ;
P-V-31   30   31   581.379882812   4.04598104954   155   0   Open           ;
P-V-32   31   32   790.137817383   11.9273900986   155   0   Open           ;
P-V-33   32   33   532.05682373   8.57962703705   155   0   Open           ;
P-V-34   33   34   639.92086792   13.9999427795   155   0   Open           ;
P-V-35   34   35   401.912826538   13.9789037704   155   0   Open           ;
P-V-36   35   36   721.999084473   3.77853858471   155   0   Open           ;
P-V-37   36   37   444.901519775   4.20038795471   155   0   Open           ;
P-V-38   37   38   346.116821289   14.7092676163   155   0   Open           ;
P-V-39   38   39   683.058441162   6.26348233223   155   0   Open           ;
P-V-41   40   41   667.360351562   9.51911830902   155   0   Open           ;
P-V-42   41   42   541.172149658   12.6061973572   155   0   Open           ;
P-V-43   42   43   368.348876953   11.7917413712   155   0   Open           ;
P-V-44   43   44   540.396881104   4.0083874464   155   0   Open           ;
P-V-45   44   45   398.3878479   5.09164237976   155   0   Open           ;
P-V-46   45   46   511.801422119   3.93524158001   155   0   Open           ;
P-V-47   46   47   730.262145996   9.3113451004   155   0   Open           ;
P-V-48   47   48   539.083007812   6.35716605186   155   0   Open           ;
P-V-49   48   49   794.719909668   4.16831791401   155   0   Open           ;
P-V-51   50   51   395.951675415   14.1938009262   155   0   Open           ;
P-V-52   51   52   711.237243652   10.2938933372   155   0   Open           ;
P-V-53   52   53   623.193664551   7.32323312759   155   0   Open           ;
P-V-54   53   54   228.880636215   14.9371213913   155   0   Open           ;
P-V-55   54   55   760.479248047   14.4974336624   155   0   Open           ;
P-V-56   55   56   268.543930054   3.35744789243   155   0   Open           ;
P-V-57   56   57   581.327148438   10.308078289   155   0   Open           ;
P-V-58   57   58   543.832519531   6.86821770668   155   0   Open           ;
P-V-59   58   59   656.997039795   5.99527359009   155   0   Open           ;
P-V-61   60   61   278.383300781   10.7645049095   155   0   Open           ;
P-V-62   61   62   701.786682129   13.5844163895   155   0   Open           ;
P-V-63   62   63   414.461029053   7.93205738068   155   0   Open           ;
P-V-64   63   64   654.435852051   9.07292938232   155   0   Open           ;
P-V-65   64   65   586.150909424   11.762676239   155   0   Open           ;
P-V-66   65   66   715.569396973   14.5072259903   155   0   Open           ;
P-V-67   66   67   698.121459961   5.55260920525   155   0   Open           ;
P-V-68   67   68   285.237411499   10.704079628   155   0   Open           ;
P-V-69   68   69   323.102386475   6.63702535629   155   0   Open           ;
P-V-71   70   71   774.203186035   7.67506599426   155   0   Open           ;
P-V-72   71   72   691.611480713   13.2882127762   155   0   Open           ;
P-V-73   72   73   499.507171631   11.3448915482   155   0   Open           ;
P-V-74   73   74   630.432800293   4.69214034081   155   0   Open           ;
P-V-75   74   75   790.14855957   3.54364198446   155   0   Open           ;
P-V-76   75   76   449.576293945   3.57480084896   155   0   Open           ;
P-V-77   76   77   233.918693542   4.42966139317   155   0   Open           ;
P-V-78   77   78   415.994567871   7.41427183151   155   0   Open           ;
P-V-79   78   79   533.552886963   7.47581911087   155   0   Open           ;
P-V-81   80   81   654.876434326   13.1703128815   155   0   Open           ;
P-V-82   81   82   422.560699463   6.55709218979   155   0   Open           ;
P-V-83   82   83   202.52795434   12.7465705872   155   0   Open           ;
P-V-84   83   84   730.927001953   4.80352520943   155   0   Open           ;
P-V-85   84   85   792.368164062   5.64178562164   155   0   Open           ;
P-V-86   85   86   224.562267303   3.36109998822   155   0   Open           ;
P-V-87   86   87   650.370513916   10.5559859276   155   0   Open           ;
P-V-88   87   88   672.725524902   12.9650707245   155   0   Open           ;
P-V-89   88   89   747.350036621   5.23266506195   155   0   Open           ;
P-V-91   90   91   220.048116684   9.97417163849   155   0   Open           ;
P-V-92   91   92   745.386413574   5.20010232925   155   0   Open           ;
P-V-93   92   93   456.030822754   13.1985702515   155   0   Open           ;
P-V-94   93   94   768.611816406   12.1893930435   155   0   Open           ;
P-V-95   94   95   506.563537598   7.27057123184   155   0   Open           ;
P-V-96   95   96   374.650604248   6.05759263039   155   0   Open           ;
P-V-97   96   97   448.190414429   5.72460246086   155   0   Open           ;
P-V-98   97   98   219.741661072   14.9622154236   155   0   Open           ;
P-V-99   98   99   248.39956665   12.0300979614   155   0   Open           ;
P-H-11   1   11   332.624008179   3.23546107113   155   0   Open           ;
P-H-12   2   12   278.616966248   5.30700397491   155   0   Open           ;
P-H-16   6   16   657.702575684   3.15248219669   155   0   Open           ;
P-H-17   7   17   603.810211182   7.77052164078   155   0   Open           ;
P-H-18   8   18   668.597351074   5.3232228756   155   0   Open           ;
P-H-19   9   19   628.590576172   9.43508625031   155   0   Open           ;
P-H-20   10   20   779.318054199   10.9817576408   155   0   Open           ;
P-H-23   13   23   223.869297028   10.4256224632   155   0   Open           ;
P-H-25   15   25   480.424285889   4.82362723351   155   0   Open           ;
P-H-33   23   33   648.276550293   14.6778802872   155   0   Open           ;
P-H-34   24   34   479.13104248   14.1158351898   155   0   Open           ;
P-H-35   25   35   493.269897461   14.7454681396   155   0   Open           ;
P-H-36   26   36   434.13130188   7.89731025696   155   0   Open           ;
P-H-38   28   38   511.546844482   14.3537998199   155   0   Open           ;
P-H-39   29   39   452.293945312   5.08527517319   155   0   Open           ;
P-H-40   30   40   328.219558716   10.7254772186   155   0   Open           ;
P-H-44   34   44   210.115700722   7.29191017151   155   0   Open           ;
P-H-51   41   51   258.377536774   6.02571582794   155   0   Open           ;
P-H-52   42   52   545.242736816   12.8935594559   155   0   Open           ;
P-H-53   43   53   529.024597168   9.33596849442   155   0   Open           ;
P-H-55   45   55   586.340148926   3.37838029861   155   0   Open           ;
P-H-56   46   56   534.802520752   7.52175331116   155   0   Open           ;
P-H-61   51   61   326.2786026   6.29169273376   155   0   Open           ;
P-H-63   53   63   462.09564209   11.829955101   155   0   Open           ;
P-H-70   60   70   369.696304321   8.7149066925   155   0   Open           ;
P-H-72   62   72   302.727760315   9.91230010986   155   0   Open           ;
P-H-75   65   75   367.618865967   6.41121077538   155   0   Open           ;
P-H-76   66   76   353.627563477   7.36635446548   155   0   Open           ;
P-H-82   72   82   615.676330566   12.4489660263   155   0   Open           ;
P-H-84   74   84   699.204620361   9.63749885559   155   0   Open           ;
P-H-87   77   87   634.813293457   13.140619278   155   0   Open           ;
P-H-88   78   88   727.153259277   8.29072523117   155   0   Open           ;
P-H-91   81   91   313.179222107   7.06489992142   155   0   Open           ;
P-H-93   83   93   292.195083618   9.45640802383   155   0   Open           ;
P-H-94   84   94   796.25402832   3.84212207794   155   0   Open           ;
P-H-97   87   97   542.175048828   13.7245798111   155   0   Open           ;
P-H-98   88   98   263.700561523   7.30709838867   155   0   Open           ;
P-S-0   100   0   30   30   155   0   Open           ;
P-S-1   101   10   30   30   155   0   Open           ;
P-S-2   102   20   30   30   155   0   Open           ;
P-S-3   103   30   30   30   155   0   Open           ;
P-S-4   104   40   30   30   155   0   Open           ;

[PUMPS]
;ID   Node1   Node2   Parameters   

[CURVES]
;ID   X-Value   Y-Value   
[VALVES]
;ID              	Node1           	Node2           	Diameter    	Type	Setting     	MinorLoss

[TAGS]

[DEMANDS]
;Junction        	Demand      	Pattern         	Category

[STATUS]
;ID              	Status/Setting

[PATTERNS]
;ID              	Multipliers

[CONTROLS]



[RULES]


[ENERGY]
 Global Efficiency  	75
 Global Price       	0.0
 Demand Charge      	0.0

[EMITTERS]
;Junction        	Coefficient

[QUALITY]
;Node            	InitQual

[SOURCES]
;Node            	Type        	Quality     	Pattern

[REACTIONS]
;Type     	Pipe/Tank       	Coefficient


[REACTIONS]
 Order Bulk            	1
 Order Tank            	1
 Order Wall            	1
 Global Bulk           	-.5
 Global Wall           	-1
 Limiting Potential    	0.0
 Roughness Correlation 	0.0

[MIXING]
;Tank            	Model

[TIMES]
 Duration           	0:30
 Hydraulic Timestep 	1:00
 Quality Timestep   	0:05
 Pattern Timestep   	2:00
 Pattern Start      	0:00
 Report Timestep    	1:00
 Report Start       	0:00
 Start ClockTime    	12 am
 Statistic          	NONE

[REPORT]
 Status             	Yes
 Summary            	No
 Page               	0

[OPTIONS]
 Units              	GPM
 Headloss           	H-W
 Specific Gravity   	1.0
 Viscosity          	1.0
 Trials             	40
 Accuracy           	0.001
 CHECKFREQ          	2
 MAXCHECK           	10
 DAMPLIMIT          	0
 Unbalanced         	Continue 10
 Pattern            	1
 Demand Multiplier  	1.0
 Emitter Exponent   	0.5
 Quality            	Chlorine mg/L
 Diffusivity        	1.0
 Tolerance          	0.01

[COORDINATES]
;Node            	X-Coord         	Y-Coord


[VERTICES]
;Link            	X-Coord         	Y-Coord

[LABELS]
;X-Coord           Y-Coord          Label & Anchor Node
             

[BACKDROP]
 DIMENSIONS     	7.00            	6.00            	73.00           	94.00           
 UNITS          	None
 FILE           	
 OFFSET         	0.00            	0.00            

[END]
