[JUNCTIONS]
;ID    Elev   Demand     Pattern     
0   453.982814789   2.89203548431           ;
1   544.003967285   2.74655866623           ;
2   541.243255615   3.75587439537           ;
3   898.120330811   4.09056138992           ;
4   406.604812622   0.070928029716           ;
5   608.744277954   3.65366721153           ;
6   618.366317749   0.827656328678           ;
7   441.9789505   0.40250658989           ;
8   892.85723877   4.5176410675           ;
9   699.556976318   1.5455108881           ;
10   440.158664703   4.46683645248           ;
11   812.107421875   2.89906787872           ;
12   863.813354492   3.11119127274           ;
13   879.312255859   3.01250433922           ;
14   515.874656677   0.0552448071539           ;
15   749.943511963   0.00634407857433           ;
16   562.492858887   0.175793796778           ;
17   856.654693604   4.96054935455           ;
18   595.289199829   2.25749254227           ;
19   567.7605896   0.523994207382           ;
20   577.03187561   3.74918317795           ;
21   652.08164978   2.36686110497           ;
22   883.719207764   3.69226455688           ;
23   489.082771301   2.14246034622           ;
24   733.453826904   3.58779430389           ;
25   405.983278751   0.609716534615           ;
26   650.624786377   2.51252055168           ;
27   693.18359375   0.369055390358           ;
28   671.374511719   4.91472244263           ;
29   573.852722168   4.42816209793           ;
30   811.7862854   3.92654752731           ;
31   748.202911377   2.46405696869           ;
32   740.734680176   2.27917289734           ;
33   505.962341309   4.09112167358           ;
34   848.437896729   3.96055722237           ;
35   408.822566986   2.80892515182           ;
36   860.483703613   3.50207543373           ;
37   838.138793945   2.99143314362           ;
38   601.632034302   3.29554533958           ;
39   723.064178467   2.40182113647           ;
40   640.875152588   3.89036631584           ;
41   438.73033905   4.40872955322           ;
42   651.842575073   2.1854596138           ;
43   502.139755249   1.62955641747           ;
44   695.526885986   4.20502662659           ;
45   788.121520996   1.58846449852           ;
46   632.263534546   1.536028862           ;
47   503.573387146   2.57896924019           ;
48   873.891967773   2.03075313568           ;
49   486.822547913   2.26693201065           ;
50   432.742424011   3.01962399483           ;
51   482.154556274   2.71692848206           ;
52   741.617401123   0.635163426399           ;
53   419.095331192   4.35219860077           ;
54   639.985870361   4.42772722244           ;
55   581.273010254   1.55509459972           ;
56   547.429214478   3.43091964722           ;
57   746.794616699   0.774654269218           ;
58   861.484863281   1.7643969059           ;
59   821.917114258   1.61148619652           ;
60   824.909637451   4.56723690033           ;
61   555.077606201   3.8941090107           ;
62   729.123748779   0.830974042416           ;
63   518.122261047   2.8085360527           ;
64   706.222717285   1.85732138157           ;
65   500.01927948   0.240649059415           ;
66   858.886077881   4.98455047607           ;
67   434.282527924   1.86446070671           ;
68   499.236442566   3.67014670372           ;
69   815.558410645   2.90417194366           ;
70   441.803642273   0.938222050667           ;
71   769.834899902   3.15893411636           ;
72   620.466171265   3.7522995472           ;
73   889.965362549   3.48316597939           ;
74   557.25680542   0.151676774025           ;
75   823.160461426   0.58247178793           ;
76   860.346130371   0.380554407835           ;
77   497.849891663   0.632019102573           ;
78   634.507736206   3.71838617325           ;
79   891.688079834   3.02169251442           ;
80   458.706047058   1.72563922405           ;
81   681.789642334   0.38618054986           ;
82   453.626190186   2.95378661156           ;
83   828.954498291   4.38652801514           ;
84   837.709655762   0.868153274059           ;
85   505.270996094   2.89728283882           ;
86   863.191192627   3.54682826996           ;
87   554.388000488   2.99321103096           ;
88   589.818069458   2.72445464134           ;
89   891.131469727   4.47051811218           ;
90   499.791503906   1.95968568325           ;
91   543.647186279   2.78420448303           ;
92   812.555053711   3.13145136833           ;
93   430.346162796   0.27974909544           ;
94   574.326049805   3.98023152351           ;
95   474.997894287   4.89663743973           ;
96   678.598083496   3.98080158234           ;
97   433.188110352   2.92603898048           ;
98   693.799743652   3.92381668091           ;
99   658.831695557   1.84745240211           ;
100   413.207504272   4.78532552719           ;
101   597.094696045   0.706881642342           ;
102   456.056663513   1.4438123703           ;
103   515.38458252   2.68752145767           ;
104   817.496795654   3.68751430511           ;
105   505.626541138   2.65388154984           ;
106   779.034362793   4.30733060837           ;
107   730.965393066   0.353351831436           ;
108   778.395965576   2.01219105721           ;
109   789.537231445   4.52503824234           ;
110   631.936309814   1.53692317009           ;
111   506.79586792   4.18172264099           ;
112   621.533981323   3.21889042854           ;
113   889.263153076   0.460500240326           ;
114   862.745635986   3.66428375244           ;
115   461.768203735   1.38255536556           ;
116   560.893981934   1.45223987103           ;
117   679.571136475   2.52347016335           ;
118   596.421325684   2.53456878662           ;
119   750.196777344   2.57682323456           ;
120   766.593200684   3.31915521622           ;
121   404.137709618   0.424875795841           ;
122   488.743354797   0.0963680818677           ;
123   865.827423096   1.61852765083           ;
124   659.424804688   1.5269087553           ;
125   675.547027588   1.18671774864           ;
126   416.517158508   1.03876852989           ;
127   758.294799805   3.61198186874           ;
128   557.917877197   1.25896275043           ;
129   838.711273193   4.20717334747           ;
130   896.081665039   1.4494934082           ;
131   563.598129272   0.937446475029           ;
132   466.404014587   0.522737801075           ;
133   465.489196777   1.76983964443           ;
134   469.561431885   1.1906837225           ;
135   582.216278076   0.09193918854           ;
136   422.19503212   0.319320589304           ;
137   582.103729248   1.174939394           ;
138   620.729629517   3.02912282944           ;
139   446.69171524   2.47689890862           ;
140   824.241027832   2.19293999672           ;
141   574.274536133   0.323797464371           ;
142   606.402526855   0.0739704370499           ;
143   722.106567383   1.45018947124           ;
144   733.425079346   3.75782871246           ;
145   682.925811768   1.3411771059           ;
146   516.383285522   0.539623916149           ;
147   845.958526611   2.25460457802           ;
148   714.237701416   3.93082427979           ;
149   436.472637177   4.95605945587           ;
150   549.800506592   1.97284758091           ;
151   664.973815918   4.15060567856           ;
152   823.003173828   4.1482834816           ;
153   420.098508835   2.95641469955           ;
154   746.591674805   1.66628050804           ;
155   417.651952744   1.76355242729           ;
156   402.648106337   0.0672669485211           ;
157   455.558864594   2.77875089645           ;
158   646.792709351   3.45245838165           ;
159   446.718654633   2.0044927597           ;
160   851.054016113   3.64985632896           ;
161   713.731384277   3.83447647095           ;
162   504.811203003   0.619673550129           ;
163   885.409729004   2.81744813919           ;
164   684.801696777   1.62716710567           ;
165   679.758117676   3.94872999191           ;
166   530.26335144   3.3628051281           ;
167   766.99307251   0.529040336609           ;
168   558.159103394   1.8018643856           ;
169   793.334197998   2.67971372604           ;
170   694.596923828   2.90562367439           ;
171   881.41204834   0.92759937048           ;
172   416.25094986   1.29741120338           ;
173   459.026977539   0.664350032806           ;
174   473.075614929   1.81832301617           ;
175   455.346775055   2.1326520443           ;
176   748.498321533   2.11790895462           ;
177   469.657600403   2.35346674919           ;
178   871.610229492   3.535176754           ;
179   471.489463806   0.235007062554           ;
180   876.386657715   1.30500721931           ;
181   725.463104248   0.587564408779           ;
182   419.482727051   4.46226835251           ;
183   635.151397705   1.89677083492           ;
184   802.824310303   2.68864250183           ;
185   701.229522705   2.64748501778           ;
186   528.428314209   4.9496588707           ;
187   791.790710449   3.26769971848           ;
188   423.164361954   3.23470568657           ;
189   469.964996338   4.01689529419           ;
190   596.319320679   0.388050556183           ;
191   596.574768066   3.32261228561           ;
192   714.465545654   2.22556209564           ;
193   402.362240553   2.02177286148           ;
194   893.951171875   3.3761947155           ;
195   770.680877686   0.339527845383           ;
196   544.425735474   3.63389825821           ;
197   892.853912354   3.96165585518           ;
198   755.110015869   3.34342217445           ;
199   689.621459961   1.68229067326           ;
200   826.04776001   0.84953224659           ;
201   708.864685059   0.894520699978           ;
202   820.979492188   4.02491903305           ;
203   581.967483521   3.27705717087           ;
204   649.670318604   2.0917904377           ;
205   572.319396973   1.72354888916           ;
206   668.739868164   2.11271977425           ;
207   748.033843994   4.05386686325           ;
208   734.411956787   4.62328529358           ;
209   756.173309326   2.05328130722           ;
210   850.045684814   4.18102169037           ;
211   443.411064148   1.0979539156           ;
212   731.099822998   2.95066261292           ;
213   578.579925537   3.92712450027           ;
214   718.077880859   4.35263586044           ;
215   874.682373047   4.86865758896           ;
216   653.091384888   2.07318711281           ;
217   805.457641602   0.272289276123           ;
218   536.61946106   1.63329076767           ;
219   471.934593201   0.0469969026744           ;
220   887.690429688   1.13368320465           ;
221   781.293273926   3.96313405037           ;
222   739.336578369   2.30210161209           ;
223   541.979309082   2.46478891373           ;
224   470.629051208   0.624795198441           ;
225   493.331977844   1.30718612671           ;
226   887.879119873   2.84789228439           ;
227   852.649139404   1.73986577988           ;
228   592.419937134   0.0207240208983           ;
229   730.86114502   2.8347287178           ;
230   728.360198975   2.50293636322           ;
231   585.35736084   3.01314258575           ;
232   588.709442139   1.39754247665           ;
233   749.707305908   0.313934087753           ;
234   529.013702393   3.33361649513           ;
235   709.123077393   4.32010889053           ;
236   706.953094482   4.60578393936           ;
237   840.7918396   3.88974308968           ;
238   891.194274902   0.0254336185753           ;
239   646.282745361   2.74338412285           ;
240   705.71383667   1.32743191719           ;
241   414.780432701   4.14743995667           ;
242   502.089523315   3.18803453445           ;
243   529.697769165   3.30450677872           ;
244   784.892272949   3.84619164467           ;
245   694.426177979   4.21297979355           ;
246   655.211959839   3.47563409805           ;
247   898.135803223   1.68997251987           ;
248   736.931304932   3.04461526871           ;
249   484.900932312   4.30006504059           ;
250   519.301422119   0.991262733936           ;
251   415.25265789   3.51425909996           ;
252   815.356567383   3.98014831543           ;
253   835.230651855   4.22074174881           ;
254   700.951660156   0.94699203968           ;
255   509.478782654   0.0997486338019           ;
256   547.521072388   3.86835479736           ;
257   443.968086243   4.71663093567           ;
258   641.356643677   4.81252002716           ;
259   802.461120605   1.64652311802           ;
260   711.44720459   4.93478536606           ;
261   794.109008789   2.90693688393           ;
262   589.09777832   1.66652727127           ;
263   832.351654053   0.349044829607           ;
264   539.657913208   2.30591988564           ;
265   459.551239014   3.77760648727           ;
266   423.394384384   1.89430892467           ;
267   665.022918701   2.40272927284           ;
268   667.384979248   4.40000581741           ;
269   490.008514404   2.73154234886           ;
270   803.1980896   0.509617030621           ;
271   413.398547173   1.89386665821           ;
272   421.596107483   4.65777206421           ;
273   717.829681396   2.63969182968           ;
274   430.12673378   3.40044903755           ;
275   535.103912354   1.91506385803           ;
276   547.808120728   2.11201238632           ;
277   559.255340576   1.04594492912           ;
278   819.602478027   2.59190177917           ;
279   609.413848877   1.18680024147           ;
280   555.110412598   4.40798187256           ;
281   895.142883301   3.67059350014           ;
282   566.5415802   0.646473705769           ;
283   428.297527313   0.965559840202           ;
284   716.484436035   1.54097104073           ;
285   810.137329102   1.78569424152           ;
286   616.235641479   2.72493052483           ;
287   690.853363037   3.72857618332           ;
288   518.429367065   4.42398881912           ;
289   798.267669678   1.84957015514           ;
290   472.57371521   2.4650888443           ;
291   474.983764648   2.52160835266           ;
292   467.110198975   4.21170186996           ;
293   506.959693909   1.71633780003           ;
294   548.851837158   2.52935743332           ;
295   490.701271057   4.16365480423           ;
296   755.240814209   0.32738032937           ;
297   628.159729004   1.80812370777           ;
298   813.504516602   2.70873355865           ;
299   468.467536926   2.33968257904           ;
300   704.488952637   0.457058161497           ;
301   577.665679932   0.272642880678           ;
302   630.918716431   0.510406315327           ;
303   739.878112793   3.31792354584           ;
304   834.246948242   3.8866174221           ;
305   637.747833252   3.28021168709           ;
306   451.562000275   1.02609860897           ;
307   463.984546661   3.88400053978           ;
308   739.668762207   3.12978482246           ;
309   629.319900513   1.79749619961           ;
310   451.933738708   3.50408244133           ;
311   711.79699707   3.72713661194           ;
312   598.633377075   4.31371831894           ;
313   466.724807739   4.43918228149           ;
314   834.274414062   3.50484037399           ;
315   485.319488525   4.6467590332           ;
316   707.871582031   3.98138689995           ;
317   417.130994797   4.20635938644           ;
318   528.314086914   0.749422907829           ;
319   455.070034027   0.620891869068           ;
320   432.924911499   3.69034337997           ;
321   760.181091309   0.636051952839           ;
322   412.491806984   4.49802160263           ;
323   725.145812988   2.26345825195           ;
324   594.447052002   0.716078341007           ;
325   412.91681385   0.929059147835           ;
326   869.770751953   4.37097263336           ;
327   693.903198242   1.30892217159           ;
328   805.400878906   0.729910254478           ;
329   660.262298584   2.28815126419           ;
330   595.949676514   3.26510953903           ;
331   569.938201904   1.51491749287           ;
332   521.824401855   0.0273536648601           ;
333   873.306091309   3.55910110474           ;
334   681.39855957   4.65688800812           ;
335   731.480865479   1.99165070057           ;
336   767.559387207   0.709156155586           ;
337   778.827148438   4.48155260086           ;
338   545.997436523   2.79064822197           ;
339   642.692672729   4.3591542244           ;
340   830.804962158   0.391807109118           ;
341   410.224252701   3.39023137093           ;
342   861.960083008   1.63730847836           ;
343   724.29119873   3.62175965309           ;
344   491.520652771   1.87687897682           ;
345   870.715362549   3.13501691818           ;
346   422.867969513   3.41982626915           ;
347   602.04296875   2.36309742928           ;
348   558.024978638   4.25808572769           ;
349   464.9973526   4.10518407822           ;
350   482.746505737   2.20592999458           ;
351   406.749455452   4.38103961945           ;
352   613.421737671   4.79336261749           ;
353   605.044113159   1.76516127586           ;
354   606.517807007   4.44849967957           ;
355   493.481445312   1.42752277851           ;
356   637.508346558   3.02856826782           ;
357   514.8176651   2.40562367439           ;
358   531.935256958   4.36061096191           ;
359   778.466705322   3.9050245285           ;
360   574.516784668   1.03856611252           ;
361   418.008207321   1.63938605785           ;
362   716.31149292   2.47485303879           ;
363   885.612213135   1.84775364399           ;
364   419.690990448   4.46492242813           ;
365   595.52053833   1.13975584507           ;
366   487.825790405   0.881244540215           ;
367   507.722900391   4.98904275894           ;
368   484.400512695   0.195122599602           ;
369   842.571289062   2.95906543732           ;
370   701.40802002   2.64865875244           ;
371   500.67729187   0.833468675613           ;
372   710.786529541   3.89339780807           ;
373   533.375854492   1.47904837132           ;
374   736.773345947   1.49772727489           ;
375   630.238342285   1.15928590298           ;
376   811.853240967   0.177305400372           ;
377   897.168518066   4.11695194244           ;
378   761.124267578   4.15747833252           ;
379   874.313323975   2.84393787384           ;
380   706.378936768   3.11228561401           ;
381   718.732055664   4.30291032791           ;
382   801.342163086   3.58055257797           ;
383   734.601623535   1.49758327007           ;
384   888.074829102   0.736878633499           ;
385   871.973876953   4.65348577499           ;
386   513.308525085   3.7655184269           ;
387   606.609359741   4.83678531647           ;
388   584.923934937   0.168075859547           ;
389   885.097229004   0.298440515995           ;
390   488.992683411   2.00047087669           ;
391   591.430618286   3.74673056602           ;
392   530.359512329   4.52480554581           ;
393   741.009155273   3.41174578667           ;
394   520.952217102   3.44082713127           ;
395   898.025238037   3.10531973839           ;
396   510.683250427   2.53442430496           ;
397   507.274124146   4.56276130676           ;
398   532.997573853   2.90470743179           ;
399   841.855651855   2.68303155899           ;
400   770.900665283   2.27689933777           ;
401   684.686676025   2.29055643082           ;
402   638.441589355   4.87918233871           ;
403   842.169006348   0.349331110716           ;
404   520.827003479   2.39575910568           ;
405   452.562454224   4.17196369171           ;
406   719.534088135   4.09685945511           ;
407   491.550094604   1.8249835968           ;
408   650.064025879   3.26589488983           ;
409   889.483612061   2.51417160034           ;
410   468.15978241   0.616029918194           ;
411   761.451873779   4.22123003006           ;
412   521.303863525   2.54114556313           ;
413   803.745941162   2.58152961731           ;
414   676.579376221   4.69787216187           ;
415   613.595062256   3.92420506477           ;
416   811.320007324   0.559116244316           ;
417   606.721542358   3.6935608387           ;
418   668.06137085   3.07531929016           ;
419   589.232772827   4.35258865356           ;
420   796.387390137   0.828331947327           ;
421   577.448165894   3.71398949623           ;
422   502.014602661   0.595288991928           ;
423   402.278854132   3.00701522827           ;
424   790.690582275   3.36968684196           ;
425   832.907226562   3.71982145309           ;
426   803.97076416   0.36919683218           ;
427   409.139613152   1.09476017952           ;
428   863.540985107   2.33824014664           ;
429   780.458862305   3.72735381126           ;
430   463.643512726   1.56504166126           ;
431   765.54397583   1.98095977306           ;
432   799.076477051   2.78495597839           ;
433   575.652801514   1.96773552895           ;
434   573.295211792   0.727660357952           ;
435   878.772003174   2.21104621887           ;
436   505.60874939   4.66319084167           ;
437   825.53604126   4.84556055069           ;
438   833.474182129   4.00891971588           ;
439   691.00881958   4.85299682617           ;
440   832.111541748   4.98947572708           ;
441   712.303710938   3.88805198669           ;
442   548.970031738   2.39401292801           ;
443   517.474411011   3.92429089546           ;
444   455.775249481   4.14636278152           ;
445   691.955963135   4.04166078568           ;
446   719.345916748   2.4671356678           ;
447   415.236554146   0.807704985142           ;
448   409.798116684   1.76960015297           ;
449   567.043426514   4.99086380005           ;
450   544.890472412   1.74258959293           ;
451   670.407653809   2.42020010948           ;
452   530.44720459   4.26240682602           ;
453   727.281036377   1.12581145763           ;
454   551.344314575   1.44258081913           ;
455   445.525138855   1.41077458858           ;
456   488.922569275   0.217363253236           ;
457   722.430023193   0.819820165634           ;
458   771.772583008   3.8190112114           ;
459   512.272766113   4.68413448334           ;
460   525.20703125   3.54757356644           ;
461   807.037536621   0.80002361536           ;
462   499.662002563   0.193104848266           ;
463   451.315498352   4.59619522095           ;
464   725.83972168   3.88226914406           ;
465   829.883331299   0.498802632093           ;
466   737.567687988   0.0057647516951           ;
467   588.818161011   4.67125368118           ;
468   876.3230896   0.624674022198           ;
469   789.666351318   1.22857773304           ;
470   770.579650879   3.32406187057           ;
471   650.829956055   1.99080765247           ;
472   850.372161865   4.05545330048           ;
473   400.492071241   2.70241785049           ;
474   853.797668457   4.78043317795           ;
475   874.155456543   1.31281995773           ;
476   856.580688477   2.51623082161           ;
477   429.285503387   2.01493620872           ;
478   403.5341115   3.97814679146           ;
479   471.609786987   0.457171261311           ;
480   767.776031494   2.11676073074           ;
481   539.80015564   1.2139518261           ;
482   688.842102051   0.693874597549           ;
483   595.01940918   1.91499185562           ;
484   426.742021561   4.53156423569           ;
485   600.526306152   2.4570376873           ;
486   443.206970215   1.79536879063           ;
487   876.245605469   2.6037478447           ;
488   519.008529663   1.76390886307           ;
489   501.506225586   0.151998326182           ;
490   863.602539062   2.68669605255           ;
491   430.265022278   1.64265286922           ;
492   706.662139893   0.708546102047           ;
493   753.435821533   1.95997238159           ;
494   525.696754456   0.854055583477           ;
495   811.165008545   4.50720691681           ;
496   662.800079346   3.81138420105           ;
497   693.372528076   2.12529206276           ;
498   878.522583008   0.292034298182           ;
499   722.056915283   3.10684943199           ;
500   581.751205444   1.92607629299           ;
501   556.287033081   2.16389775276           ;
502   762.845153809   3.39128541946           ;
503   633.384429932   4.92468070984           ;
504   810.719451904   4.62360572815           ;
505   794.420135498   0.194010049105           ;
506   472.671676636   3.92950034142           ;
507   711.013214111   1.99396324158           ;
508   654.013046265   1.97671794891           ;
509   669.946716309   4.94591426849           ;
510   498.204147339   0.171279773116           ;
511   769.913238525   1.31909132004           ;
512   896.849121094   0.435650378466           ;
513   597.623504639   4.58438301086           ;
514   872.876647949   1.3795106411           ;
515   443.598960876   2.67833209038           ;
516   872.837921143   4.87638473511           ;
517   639.937667847   1.32598721981           ;
518   486.751106262   0.259638100863           ;
519   773.747680664   0.778259158134           ;
520   420.264732361   0.893618285656           ;
521   804.291717529   4.31452083588           ;
522   815.368652344   1.0133998394           ;
523   621.197738647   1.70542144775           ;
524   702.053985596   1.2114354372           ;
525   459.659996033   2.0558180809           ;
526   613.432952881   1.67810916901           ;
527   798.058166504   1.63885223866           ;
528   818.994750977   0.454613298178           ;
529   468.60660553   0.711999535561           ;
530   557.6199646   1.189021945           ;
531   789.137695312   2.37592482567           ;
532   617.007400513   2.43526148796           ;
533   844.032440186   3.53597569466           ;
534   814.572662354   2.23323941231           ;
535   805.728515625   0.79640096426           ;
536   411.075427055   1.44722211361           ;
537   746.071289062   4.20288658142           ;
538   691.357025146   3.37549495697           ;
539   594.342376709   3.12474822998           ;
540   664.275878906   1.8463613987           ;
541   579.61831665   3.45144152641           ;
542   737.592193604   4.12505674362           ;
543   882.990386963   1.19851136208           ;
544   738.041687012   4.66857719421           ;
545   877.999969482   2.45665287971           ;
546   796.654937744   0.797827899456           ;
547   809.368438721   2.55676317215           ;
548   551.991439819   0.200899422169           ;
549   551.671508789   1.43209898472           ;
550   828.923583984   4.19150114059           ;
551   556.639419556   1.38936007023           ;
552   497.489112854   4.99659729004           ;
553   680.841522217   1.03625440598           ;
554   532.779373169   1.22846281528           ;
555   577.424850464   4.79794836044           ;
556   811.478179932   2.13824892044           ;
557   654.952865601   4.92826747894           ;
558   839.363861084   3.89029479027           ;
559   818.501617432   2.57371520996           ;
560   542.883026123   4.3521938324           ;
561   631.838623047   0.119352728128           ;
562   496.132598877   2.00722122192           ;
563   436.735080719   4.06579017639           ;
564   773.349151611   3.79295158386           ;
565   713.926391602   1.61135017872           ;
566   596.254455566   4.48705291748           ;
567   789.984344482   4.67156600952           ;
568   401.515529752   4.71509647369           ;
569   562.614929199   0.692855656147           ;
570   882.42980957   1.98084318638           ;
571   603.323318481   2.55338573456           ;
572   875.33404541   4.39673900604           ;
573   499.153060913   4.65597581863           ;
574   698.831237793   4.56806325912           ;
575   443.905967712   4.27605867386           ;
576   671.573852539   3.42257881165           ;
577   728.237213135   1.8326343298           ;
578   508.593086243   1.24064004421           ;
579   543.717010498   4.51914072037           ;
580   720.047027588   0.30760383606           ;
581   889.776885986   1.80319726467           ;
582   533.683273315   3.148229599           ;
583   629.509841919   3.72051286697           ;
584   466.108352661   0.830810666084           ;
585   743.432342529   0.675653338432           ;
586   470.624343872   4.83401870728           ;
587   435.520587921   4.94543170929           ;
588   686.946166992   2.04622411728           ;
589   489.030471802   3.35184335709           ;
590   843.320709229   3.91187810898           ;
591   593.840576172   3.78481888771           ;
592   545.336837769   1.76436531544           ;
593   768.752593994   1.24953770638           ;
594   497.955986023   3.46377515793           ;
595   467.233863831   4.99658155441           ;
596   655.045822144   0.550757169724           ;
597   557.637405396   4.12011480331           ;
598   576.610351562   2.90316677094           ;
599   752.423126221   1.75718092918           ;
600   693.999206543   2.4504172802           ;
601   816.516448975   3.92667150497           ;
602   456.720867157   3.07695198059           ;
603   833.33392334   0.433821290731           ;
604   523.468711853   1.38713526726           ;
605   758.147705078   3.88707256317           ;
606   402.963272333   3.03719067574           ;
607   506.33429718   1.60608541965           ;
608   747.855285645   4.03884077072           ;
609   479.974517822   1.31805562973           ;
610   656.104156494   3.42957353592           ;
611   484.058227539   2.66770839691           ;
612   517.547821045   1.26248371601           ;
613   756.538208008   3.38075017929           ;
614   426.603578568   1.26376867294           ;
615   416.111347198   2.83415174484           ;
616   758.986114502   4.79854202271           ;
617   810.150268555   3.95974206924           ;
618   538.683578491   3.54935646057           ;
619   803.542999268   3.47562098503           ;
620   876.186767578   2.71270418167           ;
621   641.805206299   0.201665475965           ;
622   839.18359375   3.58968424797           ;
623   582.675247192   2.23027801514           ;
624   828.48248291   0.0519924871624           ;
625   783.78024292   1.94799363613           ;