[JUNCTIONS]
;ID    Elev   Demand     Pattern     
2		50		0.1					;
3		55		0.1				;
4		35		0.1					;
5		25		0.1					;
6		67		0.1					;
7		22		0.1					;
8		56		0.1					;
9		48		0.1					;
10		52		0.1				;
11		62		0.1					;
12		35		0.1					;
13		49		0.1					;
14		65		0.1				;
15		19		0.1				;

[RESERVOIRS]
;ID    Head   Pattern     
1		100 		;


[PIPES]
;ID    Node1   Node2   Length   Diameter   Roughness   MinorLoss   Status   
P1   1   2   100   5   155   0   Open           ;
P2   2   4   100   5   155   0   Open           ;
P3   4   5   100   5   155   0   Open           ;
P4   2   3   100   5   155   0   Open           ;
P5   4   6   100   5   155   0   Open           ;
P6   5   7   100   5   155   0   Open           ;
P7   3   6   100   5   155   0   Open           ;
P8   6   13   100   5   155   0   Open           ;
P9   3   8   100   5   155   0   Open           ;
P10   6   8   100   5   155   0   Open           ;
P11   6   9   100   5   155   0   Open           ;
P12   7   9   100   5   155   0   Open           ;
P13   8   9   100   5   155   0   Open           ;
P14   7   10   100   5   155   0   Open           ;
P15   10   11   100   5   155   0   Open           ;
P16   10   12   100   5   155   0   Open           ;
P17   13   15   100   5   155   0   Open           ;
P18   13   14   100   5   155   0   Open           ;
P19   14   15   100   5   155   0   Open           ;
P20   15   7   100   5   155   0   Open           ;


[PUMPS]
;ID   Node1   Node2   Parameters   

[CURVES]
;ID   X-Value   Y-Value   
[VALVES]
;ID              	Node1           	Node2           	Diameter    	Type	Setting     	MinorLoss

[TAGS]

[DEMANDS]
;Junction        	Demand      	Pattern         	Category

[STATUS]
;ID              	Status/Setting

[PATTERNS]
;ID              	Multipliers

[CONTROLS]



[RULES]


[ENERGY]
 Global Efficiency  	75
 Global Price       	0.0
 Demand Charge      	0.0

[EMITTERS]
;Junction        	Coefficient

[QUALITY]
;Node            	InitQual

[SOURCES]
;Node            	Type        	Quality     	Pattern

[REACTIONS]
;Type     	Pipe/Tank       	Coefficient


[REACTIONS]
 Order Bulk            	1
 Order Tank            	1
 Order Wall            	1
 Global Bulk           	-.5
 Global Wall           	-1
 Limiting Potential    	0.0
 Roughness Correlation 	0.0

[MIXING]
;Tank            	Model

[TIMES]
 Duration           	0:30
 Hydraulic Timestep 	1:00
 Quality Timestep   	0:05
 Pattern Timestep   	2:00
 Pattern Start      	0:00
 Report Timestep    	1:00
 Report Start       	0:00
 Start ClockTime    	12 am
 Statistic          	NONE

[REPORT]
 Status             	Yes
 Summary            	No
 Page               	0

[OPTIONS]
 Units              	GPM
 Headloss           	H-W
 Specific Gravity   	1.0
 Viscosity          	1.0
 Trials             	40
 Accuracy           	0.001
 CHECKFREQ          	2
 MAXCHECK           	10
 DAMPLIMIT          	0
 Unbalanced         	Continue 10
 Pattern            	1
 Demand Multiplier  	1.0
 Emitter Exponent   	0.5
 Quality            	Chlorine mg/L
 Diffusivity        	1.0
 Tolerance          	0.01

[COORDINATES]
;Node            	X-Coord         	Y-Coord


[VERTICES]
;Link            	X-Coord         	Y-Coord

[LABELS]
;X-Coord           Y-Coord          Label & Anchor Node
             

[BACKDROP]
 DIMENSIONS     	7.00            	6.00            	73.00           	94.00           
 UNITS          	None
 FILE           	
 OFFSET         	0.00            	0.00            

[ISOVALVES]
;ID              	Node 			Pipe  
V1					2				P1  ;
V2					4				P3	;
V3					2				P4	;
V4					3				P4	;
V5					6				P5	;
V6					5				P6	;
V7					3				P7	;
V8					6				P8	;
V9					3				P9	;
V10					6				P10	;
V11					8				P13	;
V12					9				P13	;
V13					7				P14	;
V14					10				P15	;
V15					13				P17	;
V16					14				P19	;
V17					7				P20	;
[END]